3084961
  -OEChem-07302621033D

 53 56  0     1  0  0  0  0  0999 V2000
   -2.8589    0.4638   -0.3399 O   0  0  0  0  0  0  0  0  0  0  0  0
   -1.9908   -0.6711    1.5042 O   0  0  0  0  0  0  0  0  0  0  0  0
   -6.5040    0.9335    1.4946 O   0  0  0  0  0  0  0  0  0  0  0  0
   -4.6182   -1.1209    2.4415 O   0  0  0  0  0  0  0  0  0  0  0  0
   -6.2793    1.2251   -1.3886 O   0  0  0  0  0  0  0  0  0  0  0  0
   -4.3654    1.9156   -3.1594 O   0  0  0  0  0  0  0  0  0  0  0  0
   -2.3472    2.2017   -2.1393 O   0  0  0  0  0  0  0  0  0  0  0  0
    2.5674    0.1554    0.4201 O   0  0  0  0  0  0  0  0  0  0  0  0
    0.2652    0.9292    1.6226 O   0  0  0  0  0  0  0  0  0  0  0  0
    0.3579   -3.8959   -1.0637 O   0  0  0  0  0  0  0  0  0  0  0  0
    2.8659   -3.3598   -1.6179 O   0  0  0  0  0  0  0  0  0  0  0  0
   -5.5339    0.2623    0.6892 C   0  0  2  0  0  0  0  0  0  0  0  0
   -4.3035   -0.0627    1.5367 C   0  0  2  0  0  0  0  0  0  0  0  0
   -5.1779    1.1772   -0.4831 C   0  0  1  0  0  0  0  0  0  0  0  0
   -3.1322   -0.5118    0.6626 C   0  0  1  0  0  0  0  0  0  0  0  0
   -3.9561    0.6518   -1.2264 C   0  0  1  0  0  0  0  0  0  0  0  0
   -3.4436    1.6654   -2.1977 C   0  0  0  0  0  0  0  0  0  0  0  0
   -0.8337   -1.0636    0.8969 C   0  0  0  0  0  0  0  0  0  0  0  0
    0.3054   -0.2601    0.9547 C   0  0  0  0  0  0  0  0  0  0  0  0
   -0.7983   -2.2809    0.2153 C   0  0  0  0  0  0  0  0  0  0  0  0
    1.4807   -0.6770    0.3294 C   0  0  0  0  0  0  0  0  0  0  0  0
    1.5141   -1.8931   -0.3509 C   0  0  0  0  0  0  0  0  0  0  0  0
    0.3758   -2.7004   -0.4113 C   0  0  0  0  0  0  0  0  0  0  0  0
    2.7659   -2.3074   -1.0026 C   0  0  0  0  0  0  0  0  0  0  0  0
    3.7514   -0.2359   -0.1865 C   0  0  0  0  0  0  0  0  0  0  0  0
    3.9065   -1.3781   -0.8746 C   0  0  0  0  0  0  0  0  0  0  0  0
    4.8533    0.7353   -0.0333 C   0  0  0  0  0  0  0  0  0  0  0  0
    0.6060    0.9047    3.0066 C   0  0  0  0  0  0  0  0  0  0  0  0
    5.8259    0.8562   -1.0292 C   0  0  0  0  0  0  0  0  0  0  0  0
    4.9283    1.5381    1.1077 C   0  0  0  0  0  0  0  0  0  0  0  0
    6.8665    1.7738   -0.8850 C   0  0  0  0  0  0  0  0  0  0  0  0
    5.9688    2.4558    1.2519 C   0  0  0  0  0  0  0  0  0  0  0  0
    6.9380    2.5736    0.2555 C   0  0  0  0  0  0  0  0  0  0  0  0
   -6.0117   -0.6576    0.3296 H   0  0  0  0  0  0  0  0  0  0  0  0
   -4.0145    0.8054    2.1424 H   0  0  0  0  0  0  0  0  0  0  0  0
   -5.0113    2.1991   -0.1208 H   0  0  0  0  0  0  0  0  0  0  0  0
   -3.3777   -1.4738    0.1938 H   0  0  0  0  0  0  0  0  0  0  0  0
   -4.1513   -0.2781   -1.7749 H   0  0  0  0  0  0  0  0  0  0  0  0
   -6.7907    0.3155    2.1877 H   0  0  0  0  0  0  0  0  0  0  0  0
   -5.2995   -0.7938    3.0526 H   0  0  0  0  0  0  0  0  0  0  0  0
   -6.4352    0.3250   -1.7220 H   0  0  0  0  0  0  0  0  0  0  0  0
   -1.6748   -2.9230    0.1811 H   0  0  0  0  0  0  0  0  0  0  0  0
   -4.0482    2.5808   -3.8069 H   0  0  0  0  0  0  0  0  0  0  0  0
    4.8364   -1.6873   -1.3372 H   0  0  0  0  0  0  0  0  0  0  0  0
    1.2244   -4.0822   -1.4562 H   0  0  0  0  0  0  0  0  0  0  0  0
    1.6320    0.5495    3.1456 H   0  0  0  0  0  0  0  0  0  0  0  0
    0.5343    1.9244    3.3949 H   0  0  0  0  0  0  0  0  0  0  0  0
   -0.0898    0.2691    3.5634 H   0  0  0  0  0  0  0  0  0  0  0  0
    5.7937    0.2677   -1.9422 H   0  0  0  0  0  0  0  0  0  0  0  0
    4.1912    1.4616    1.9034 H   0  0  0  0  0  0  0  0  0  0  0  0
    7.6185    1.8696   -1.6627 H   0  0  0  0  0  0  0  0  0  0  0  0
    6.0256    3.0777    2.1405 H   0  0  0  0  0  0  0  0  0  0  0  0
    7.7476    3.2887    0.3675 H   0  0  0  0  0  0  0  0  0  0  0  0
  1 15  1  0  0  0  0
  1 16  1  0  0  0  0
  2 15  1  0  0  0  0
  2 18  1  0  0  0  0
  3 12  1  0  0  0  0
  3 39  1  0  0  0  0
  4 13  1  0  0  0  0
  4 40  1  0  0  0  0
  5 14  1  0  0  0  0
  5 41  1  0  0  0  0
  6 17  1  0  0  0  0
  6 43  1  0  0  0  0
  7 17  2  0  0  0  0
  8 21  1  0  0  0  0
  8 25  1  0  0  0  0
  9 19  1  0  0  0  0
  9 28  1  0  0  0  0
 10 23  1  0  0  0  0
 10 45  1  0  0  0  0
 11 24  2  0  0  0  0
 12 13  1  0  0  0  0
 12 14  1  0  0  0  0
 12 34  1  0  0  0  0
 13 15  1  0  0  0  0
 13 35  1  0  0  0  0
 14 16  1  0  0  0  0
 14 36  1  0  0  0  0
 15 37  1  0  0  0  0
 16 17  1  0  0  0  0
 16 38  1  0  0  0  0
 18 19  2  0  0  0  0
 18 20  1  0  0  0  0
 19 21  1  0  0  0  0
 20 23  2  0  0  0  0
 20 42  1  0  0  0  0
 21 22  2  0  0  0  0
 22 23  1  0  0  0  0
 22 24  1  0  0  0  0
 24 26  1  0  0  0  0
 25 26  2  0  0  0  0
 25 27  1  0  0  0  0
 26 44  1  0  0  0  0
 27 29  2  0  0  0  0
 27 30  1  0  0  0  0
 28 46  1  0  0  0  0
 28 47  1  0  0  0  0
 28 48  1  0  0  0  0
 29 31  1  0  0  0  0
 29 49  1  0  0  0  0
 30 32  2  0  0  0  0
 30 50  1  0  0  0  0
 31 33  2  0  0  0  0
 31 51  1  0  0  0  0
 32 33  1  0  0  0  0
 32 52  1  0  0  0  0
 33 53  1  0  0  0  0
M  END
> <PUBCHEM_COMPOUND_CID>
3084961

> <PUBCHEM_CONFORMER_RMSD>
0.8

> <PUBCHEM_CONFORMER_DIVERSEORDER>
1
101
78
8
73
87
120
97
94
33
62
119
29
117
47
106
92
115
109
77
112
25
80
28
2
20
66
65
114
43
105
108
34
82
99
55
70
45
56
98
39
61
123
10
42
6
16
52
37
30
67
44
17
60
63
14
102
4
118
5
3
9
69
113
116
22
74
111
110
7
46
71
31
104
103
58
32
35
81
95
41
85
15
11
107
13
53
59
38
75
68
48
19
91
27
100
86
21
88
83
26
79
51
57
76
36
90
24
64
122
40
23
96
72
93
89
54
121
49
84
50
18
12

> <PUBCHEM_MMFF94_PARTIAL_CHARGES>
45
1 -0.56
10 -0.53
11 -0.57
12 0.28
13 0.28
14 0.28
15 0.56
16 0.34
17 0.66
18 0.08
19 0.08
2 -0.36
20 -0.15
21 0.08
22 0.09
23 0.08
24 0.47
25 0.05
26 -0.14
27 0.03
28 0.28
29 -0.15
3 -0.68
30 -0.15
31 -0.15
32 -0.15
33 -0.15
39 0.4
4 -0.68
40 0.4
41 0.4
42 0.15
43 0.5
44 0.15
45 0.45
49 0.15
5 -0.68
50 0.15
51 0.15
52 0.15
53 0.15
6 -0.65
7 -0.57
8 -0.16
9 -0.36

> <PUBCHEM_EFFECTIVE_ROTOR_COUNT>
6.2

> <PUBCHEM_PHARMACOPHORE_FEATURES>
19
1 1 acceptor
1 10 donor
1 11 acceptor
1 2 acceptor
1 3 acceptor
1 3 donor
1 4 acceptor
1 4 donor
1 5 acceptor
1 5 donor
1 6 acceptor
1 7 acceptor
1 8 acceptor
1 9 acceptor
3 6 7 17 anion
6 1 12 13 14 15 16 rings
6 18 19 20 21 22 23 rings
6 27 29 30 31 32 33 rings
6 8 21 22 24 25 26 rings

> <PUBCHEM_HEAVY_ATOM_COUNT>
33

> <PUBCHEM_ATOM_DEF_STEREO_COUNT>
5

> <PUBCHEM_ATOM_UDEF_STEREO_COUNT>
0

> <PUBCHEM_BOND_DEF_STEREO_COUNT>
0

> <PUBCHEM_BOND_UDEF_STEREO_COUNT>
0

> <PUBCHEM_ISOTOPIC_ATOM_COUNT>
0

> <PUBCHEM_COMPONENT_COUNT>
1

> <PUBCHEM_CACTVS_TAUTO_COUNT>
4

> <PUBCHEM_CONFORMER_ID>
002F12A100000001

> <PUBCHEM_MMFF94_ENERGY>
115.2359

> <PUBCHEM_FEATURE_SELFOVERLAP>
96.605

> <PUBCHEM_SHAPE_FINGERPRINT>
10 15 17458628938421549504
10165383 225 18341337764342666787
10369192 42 18411426137081384581
105312 117 18338792420625688214
11135926 11 18131639976166880590
11621639 307 17703231711043634336
11720765 8 17252564800152789567
11796584 16 13110954310433743055
11991303 11 18337679736460543550
12107698 1 17168708659994997349
12293681 160 17704080607397970786
12403259 415 18261399901274569038
12422481 6 17894625989913922812
12788726 201 16199883751608976635
12969540 114 18273493498714702610
13257819 101 18260823808895081102
13402501 40 18187082858070643869
13911987 19 18272937136798021394
14117953 113 18342468071313969972
14415360 78 18057877138104434520
14739800 52 17168410593506907368
14767858 380 17632580456969906072
14840074 17 17275109422543762685
15001296 14 15409742908952294089
15183329 4 15769783450429072208
15276724 80 17916319238192409425
20715895 44 18272091638933362488
21033648 144 18409731767930000767
21033648 29 18113344097815891351
21859007 373 18041552539148806430
23559900 14 17315367933674111363
24771293 8 18040153995156402573
2838139 119 18115012096227203092
392239 28 16226059915653487449
44802255 64 18188781664456202254
484985 159 11239728525728064839
57527585 21 18120345732692133517
58902169 19 16128385891290712760
6697151 62 17830437402827914886
9849439 229 16736899426268185181

> <PUBCHEM_SHAPE_MULTIPOLES>
614.56
16.62
3.22
2.31
4.59
2.52
0.13
-14.87
1.8
3.06
1.43
-3.01
-1.2
3.14

> <PUBCHEM_SHAPE_SELFOVERLAP>
1350.616

> <PUBCHEM_SHAPE_VOLUME>
327.4

> <PUBCHEM_COORDINATE_TYPE>
2
5
10

$$$$
5281674
  -OEChem-07302621033D

 30 32  0     0  0  0  0  0  0999 V2000
    0.2823   -0.6810    0.0333 O   0  0  0  0  0  0  0  0  0  0  0  0
   -3.6002    2.2177   -0.1039 O   0  0  0  0  0  0  0  0  0  0  0  0
   -1.3689   -2.8269    0.1555 O   0  0  0  0  0  0  0  0  0  0  0  0
   -4.1145   -2.4905    0.1496 O   0  0  0  0  0  0  0  0  0  0  0  0
   -1.1414    3.1315   -0.1594 O   0  0  0  0  0  0  0  0  0  0  0  0
   -1.6248    0.8215   -0.0388 C   0  0  0  0  0  0  0  0  0  0  0  0
   -1.0709   -0.4558    0.0268 C   0  0  0  0  0  0  0  0  0  0  0  0
    1.1340    0.4111   -0.0361 C   0  0  0  0  0  0  0  0  0  0  0  0
   -0.7245    1.9829   -0.1033 C   0  0  0  0  0  0  0  0  0  0  0  0
   -3.0111    0.9912   -0.0415 C   0  0  0  0  0  0  0  0  0  0  0  0
   -1.9027   -1.5739    0.0906 C   0  0  0  0  0  0  0  0  0  0  0  0
    0.7227    1.6877   -0.0959 C   0  0  0  0  0  0  0  0  0  0  0  0
    2.5673    0.0564   -0.0164 C   0  0  0  0  0  0  0  0  0  0  0  0
   -3.2880   -1.4087    0.0880 C   0  0  0  0  0  0  0  0  0  0  0  0
   -3.8408   -0.1290    0.0220 C   0  0  0  0  0  0  0  0  0  0  0  0
    3.4989    0.9300    0.5502 C   0  0  0  0  0  0  0  0  0  0  0  0
    2.9983   -1.1544   -0.5644 C   0  0  0  0  0  0  0  0  0  0  0  0
    4.8528    0.5948    0.5686 C   0  0  0  0  0  0  0  0  0  0  0  0
    4.3522   -1.4896   -0.5456 C   0  0  0  0  0  0  0  0  0  0  0  0
    5.2795   -0.6150    0.0208 C   0  0  0  0  0  0  0  0  0  0  0  0
    1.3901    2.5389   -0.1625 H   0  0  0  0  0  0  0  0  0  0  0  0
   -4.9205    0.0021    0.0200 H   0  0  0  0  0  0  0  0  0  0  0  0
    3.2047    1.8713    1.0068 H   0  0  0  0  0  0  0  0  0  0  0  0
    2.2987   -1.8510   -1.0198 H   0  0  0  0  0  0  0  0  0  0  0  0
    5.5747    1.2732    1.0139 H   0  0  0  0  0  0  0  0  0  0  0  0
    4.6849   -2.4308   -0.9736 H   0  0  0  0  0  0  0  0  0  0  0  0
    6.3335   -0.8763    0.0361 H   0  0  0  0  0  0  0  0  0  0  0  0
   -2.9289    2.9158   -0.1467 H   0  0  0  0  0  0  0  0  0  0  0  0
   -2.0980   -3.4701    0.1934 H   0  0  0  0  0  0  0  0  0  0  0  0
   -5.0379   -2.1855    0.1375 H   0  0  0  0  0  0  0  0  0  0  0  0
  1  7  1  0  0  0  0
  1  8  1  0  0  0  0
  2 10  1  0  0  0  0
  2 28  1  0  0  0  0
  3 11  1  0  0  0  0
  3 29  1  0  0  0  0
  4 14  1  0  0  0  0
  4 30  1  0  0  0  0
  5  9  2  0  0  0  0
  6  7  2  0  0  0  0
  6  9  1  0  0  0  0
  6 10  1  0  0  0  0
  7 11  1  0  0  0  0
  8 12  2  0  0  0  0
  8 13  1  0  0  0  0
  9 12  1  0  0  0  0
 10 15  2  0  0  0  0
 11 14  2  0  0  0  0
 12 21  1  0  0  0  0
 13 16  2  0  0  0  0
 13 17  1  0  0  0  0
 14 15  1  0  0  0  0
 15 22  1  0  0  0  0
 16 18  1  0  0  0  0
 16 23  1  0  0  0  0
 17 19  2  0  0  0  0
 17 24  1  0  0  0  0
 18 20  2  0  0  0  0
 18 25  1  0  0  0  0
 19 20  1  0  0  0  0
 19 26  1  0  0  0  0
 20 27  1  0  0  0  0
M  END
> <PUBCHEM_COMPOUND_CID>
5281674

> <PUBCHEM_CONFORMER_RMSD>
0.6

> <PUBCHEM_CONFORMER_DIVERSEORDER>
1

> <PUBCHEM_MMFF94_PARTIAL_CHARGES>
30
1 -0.16
10 0.08
11 0.08
12 -0.14
13 0.03
14 0.08
15 -0.15
16 -0.15
17 -0.15
18 -0.15
19 -0.15
2 -0.53
20 -0.15
21 0.15
22 0.15
23 0.15
24 0.15
25 0.15
26 0.15
27 0.15
28 0.45
29 0.45
3 -0.53
30 0.45
4 -0.53
5 -0.57
6 0.09
7 0.08
8 0.05
9 0.47

> <PUBCHEM_EFFECTIVE_ROTOR_COUNT>
1

> <PUBCHEM_PHARMACOPHORE_FEATURES>
8
1 1 acceptor
1 2 donor
1 3 donor
1 4 donor
1 5 acceptor
6 1 6 7 8 9 12 rings
6 13 16 17 18 19 20 rings
6 6 7 10 11 14 15 rings

> <PUBCHEM_HEAVY_ATOM_COUNT>
20

> <PUBCHEM_ATOM_DEF_STEREO_COUNT>
0

> <PUBCHEM_ATOM_UDEF_STEREO_COUNT>
0

> <PUBCHEM_BOND_DEF_STEREO_COUNT>
0

> <PUBCHEM_BOND_UDEF_STEREO_COUNT>
0

> <PUBCHEM_ISOTOPIC_ATOM_COUNT>
0

> <PUBCHEM_COMPONENT_COUNT>
1

> <PUBCHEM_CACTVS_TAUTO_COUNT>
22

> <PUBCHEM_CONFORMER_ID>
0050978A00000001

> <PUBCHEM_MMFF94_ENERGY>
61.2951

> <PUBCHEM_FEATURE_SELFOVERLAP>
40.629

> <PUBCHEM_SHAPE_FINGERPRINT>
10319926 262 18268409288824586930
10411042 1 18265898154190161547
10493431 412 18197507225414965513
105312 117 17605541159914774565
10616163 171 18411139108701702910
10967382 1 17905891736096207101
11132069 177 18410012108998168424
12032990 46 18410858793043895515
12236239 1 17458345225650436808
13140716 1 18411707612037288641
13214271 11 18343297063508183501
13544592 145 18127702526027003534
138480 1 16032391542289112125
14790565 3 17835808495464645793
14866123 147 16905542412256250578
15042514 8 18408610253680165233
15196674 1 18411419514304883590
15352361 1 18338797926230682806
15375358 24 18343863295101468406
17804303 29 18413110575746510720
1813 80 17603304877627771916
19141452 34 18272937158695260087
200 152 17418366974316927380
20510252 161 18270961232883393176
21029758 11 18341887532925678085
21065198 57 18341611491140430824
21065201 7 18335979783993066746
21267235 1 18337117842425037323
2297311 6 18340780294730552860
23366157 5 17824543204379803340
23402539 116 18412536604854065799
23557571 272 18342465854603663492
23559900 14 18269835333661891238
23845131 108 17547871659269589225
2748010 2 18338508742267691333
335352 9 18338517421974610261
34934 24 18335413526408301747
4214541 1 18411419488498273520
474 4 16878802646204439868
5104073 3 18342454825196278282
559249 180 18189329087765290322
59755656 215 18336826399351589287
67856867 119 18188212113212095020
69090 78 18342734075068679462
7364860 26 17907579477512491593
77779 3 18412263930771675034
8809292 202 18410577271133839466
9709674 26 18271529685032617174

> <PUBCHEM_SHAPE_MULTIPOLES>
382.24
9.52
2.72
0.66
7.63
0.21
0
-2.7
0.41
-2.57
-0.08
0.28
-0.01
0.69

> <PUBCHEM_SHAPE_SELFOVERLAP>
857.519

> <PUBCHEM_SHAPE_VOLUME>
200.4

> <PUBCHEM_COORDINATE_TYPE>
2
5
10

$$$$
5281703
  -OEChem-07302621033D

 33 35  0     0  0  0  0  0  0999 V2000
    0.3197   -0.5191    0.1148 O   0  0  0  0  0  0  0  0  0  0  0  0
   -1.3981   -2.5989    0.3795 O   0  0  0  0  0  0  0  0  0  0  0  0
   -3.4694    2.4892   -0.1821 O   0  0  0  0  0  0  0  0  0  0  0  0
   -4.1315   -2.1751    0.3674 O   0  0  0  0  0  0  0  0  0  0  0  0
   -0.9831    3.3180   -0.3077 O   0  0  0  0  0  0  0  0  0  0  0  0
   -1.5390    1.0368   -0.0407 C   0  0  0  0  0  0  0  0  0  0  0  0
   -1.0257   -0.2512    0.1015 C   0  0  0  0  0  0  0  0  0  0  0  0
    1.2052    0.5385   -0.0272 C   0  0  0  0  0  0  0  0  0  0  0  0
   -1.8922   -1.3358    0.2395 C   0  0  0  0  0  0  0  0  0  0  0  0
   -0.6027    2.1622   -0.1824 C   0  0  0  0  0  0  0  0  0  0  0  0
   -2.9192    1.2506   -0.0465 C   0  0  0  0  0  0  0  0  0  0  0  0
    0.8343    1.8215   -0.1644 C   0  0  0  0  0  0  0  0  0  0  0  0
    2.6266    0.1397    0.0069 C   0  0  0  0  0  0  0  0  0  0  0  0
   -3.2715   -1.1265    0.2340 C   0  0  0  0  0  0  0  0  0  0  0  0
   -3.7837    0.1639    0.0912 C   0  0  0  0  0  0  0  0  0  0  0  0
    3.5898    1.0163    0.5128 C   0  0  0  0  0  0  0  0  0  0  0  0
    3.0149   -1.1163   -0.4660 C   0  0  0  0  0  0  0  0  0  0  0  0
    4.9324    0.6395    0.5456 C   0  0  0  0  0  0  0  0  0  0  0  0
    4.3576   -1.4933   -0.4331 C   0  0  0  0  0  0  0  0  0  0  0  0
    5.3162   -0.6154    0.0726 C   0  0  0  0  0  0  0  0  0  0  0  0
   -1.1808   -3.3448   -0.8159 C   0  0  0  0  0  0  0  0  0  0  0  0
    1.5281    2.6449   -0.2875 H   0  0  0  0  0  0  0  0  0  0  0  0
   -4.8586    0.3292    0.0868 H   0  0  0  0  0  0  0  0  0  0  0  0
    3.3291    1.9933    0.9109 H   0  0  0  0  0  0  0  0  0  0  0  0
    2.2901   -1.8174   -0.8728 H   0  0  0  0  0  0  0  0  0  0  0  0
    5.6787    1.3207    0.9440 H   0  0  0  0  0  0  0  0  0  0  0  0
    4.6570   -2.4697   -0.8027 H   0  0  0  0  0  0  0  0  0  0  0  0
    6.3615   -0.9092    0.0989 H   0  0  0  0  0  0  0  0  0  0  0  0
   -2.7766    3.1613   -0.2720 H   0  0  0  0  0  0  0  0  0  0  0  0
   -5.0449   -1.8419    0.3402 H   0  0  0  0  0  0  0  0  0  0  0  0
   -0.7832   -4.3254   -0.5400 H   0  0  0  0  0  0  0  0  0  0  0  0
   -2.1213   -3.4886   -1.3569 H   0  0  0  0  0  0  0  0  0  0  0  0
   -0.4518   -2.8407   -1.4583 H   0  0  0  0  0  0  0  0  0  0  0  0
  1  7  1  0  0  0  0
  1  8  1  0  0  0  0
  2  9  1  0  0  0  0
  2 21  1  0  0  0  0
  3 11  1  0  0  0  0
  3 29  1  0  0  0  0
  4 14  1  0  0  0  0
  4 30  1  0  0  0  0
  5 10  2  0  0  0  0
  6  7  2  0  0  0  0
  6 10  1  0  0  0  0
  6 11  1  0  0  0  0
  7  9  1  0  0  0  0
  8 12  2  0  0  0  0
  8 13  1  0  0  0  0
  9 14  2  0  0  0  0
 10 12  1  0  0  0  0
 11 15  2  0  0  0  0
 12 22  1  0  0  0  0
 13 16  2  0  0  0  0
 13 17  1  0  0  0  0
 14 15  1  0  0  0  0
 15 23  1  0  0  0  0
 16 18  1  0  0  0  0
 16 24  1  0  0  0  0
 17 19  2  0  0  0  0
 17 25  1  0  0  0  0
 18 20  2  0  0  0  0
 18 26  1  0  0  0  0
 19 20  1  0  0  0  0
 19 27  1  0  0  0  0
 20 28  1  0  0  0  0
 21 31  1  0  0  0  0
 21 32  1  0  0  0  0
 21 33  1  0  0  0  0
M  END
> <PUBCHEM_COMPOUND_CID>
5281703

> <PUBCHEM_CONFORMER_RMSD>
0.6

> <PUBCHEM_CONFORMER_DIVERSEORDER>
1
2

> <PUBCHEM_MMFF94_PARTIAL_CHARGES>
30
1 -0.16
10 0.47
11 0.08
12 -0.14
13 0.03
14 0.08
15 -0.15
16 -0.15
17 -0.15
18 -0.15
19 -0.15
2 -0.36
20 -0.15
21 0.28
22 0.15
23 0.15
24 0.15
25 0.15
26 0.15
27 0.15
28 0.15
29 0.45
3 -0.53
30 0.45
4 -0.53
5 -0.57
6 0.09
7 0.08
8 0.05
9 0.08

> <PUBCHEM_EFFECTIVE_ROTOR_COUNT>
2

> <PUBCHEM_PHARMACOPHORE_FEATURES>
8
1 1 acceptor
1 2 acceptor
1 3 donor
1 4 donor
1 5 acceptor
6 1 6 7 8 10 12 rings
6 13 16 17 18 19 20 rings
6 6 7 9 11 14 15 rings

> <PUBCHEM_HEAVY_ATOM_COUNT>
21

> <PUBCHEM_ATOM_DEF_STEREO_COUNT>
0

> <PUBCHEM_ATOM_UDEF_STEREO_COUNT>
0

> <PUBCHEM_BOND_DEF_STEREO_COUNT>
0

> <PUBCHEM_BOND_UDEF_STEREO_COUNT>
0

> <PUBCHEM_ISOTOPIC_ATOM_COUNT>
0

> <PUBCHEM_COMPONENT_COUNT>
1

> <PUBCHEM_CACTVS_TAUTO_COUNT>
12

> <PUBCHEM_CONFORMER_ID>
005097A700000001

> <PUBCHEM_MMFF94_ENERGY>
75.2484

> <PUBCHEM_FEATURE_SELFOVERLAP>
40.631

> <PUBCHEM_SHAPE_FINGERPRINT>
10319926 262 18267846343208278978
10411042 1 18265053724949179659
10493431 412 18196661696630837161
105312 117 17605542255073438749
10616163 171 18410576184660503598
10967382 1 17977668937457573421
11014199 57 17550381187053916934
11552529 35 17631730620307524022
12173636 292 18265610975027266908
12236239 1 17458064850211844664
12553582 1 18122634017624821342
13140716 1 17978516656633136923
13544592 145 18127984018294418094
138480 1 16176224168666488461
14790565 3 17979080375185951993
15042514 8 18408608067193788363
15196674 1 18410575080784882024
15352361 1 18337954600885947218
15375358 24 18272087176092972654
16752209 62 18335409158600790955
16945 1 18050572034626091381
17804303 29 18412830208903043448
1813 80 17530682139008387148
19141452 34 18272654596923050903
19591789 44 18410293614134719211
200 152 17489579035354926372
20510252 161 18270962332368666688
21065198 57 18412823578043133784
21267235 1 18336274512711500946
22182313 1 18269009608750639791
2297311 6 18339935865542448284
23366157 5 17824261733740290460
23402539 116 18342731936317475543
23557571 272 18342185479238911316
23559900 14 18269272375150118846
2748010 2 18410863122893175935
335352 9 18337954467689330836
34934 24 18336820974517555498
4214541 1 18410856534307985184
5104073 3 18413105035787176576
559249 180 18261949636146506986
59755656 215 18336827481725402983
69090 78 18412540981673718390
7364860 26 17978793741778984249
8809292 202 18410295787651531800
9709674 26 18342741767592762974

> <PUBCHEM_SHAPE_MULTIPOLES>
402.82
9.15
3.21
0.7
8.63
0.42
0.02
1.75
-0.86
-2.82
0.53
0.11
0.11
0.63

> <PUBCHEM_SHAPE_SELFOVERLAP>
895.89

> <PUBCHEM_SHAPE_VOLUME>
213.8

> <PUBCHEM_COORDINATE_TYPE>
2
5
10

$$$$
5322078
  -OEChem-07302621033D

 34 36  0     0  0  0  0  0  0999 V2000
    0.0377   -0.4733    0.1100 O   0  0  0  0  0  0  0  0  0  0  0  0
   -1.5966   -2.6193    0.3763 O   0  0  0  0  0  0  0  0  0  0  0  0
   -3.8674    2.3846   -0.1718 O   0  0  0  0  0  0  0  0  0  0  0  0
   -4.3447   -2.3029    0.3724 O   0  0  0  0  0  0  0  0  0  0  0  0
   -1.4156    3.3102   -0.3043 O   0  0  0  0  0  0  0  0  0  0  0  0
    6.3567   -0.6906    0.0798 O   0  0  0  0  0  0  0  0  0  0  0  0
   -1.8811    1.0088   -0.0379 C   0  0  0  0  0  0  0  0  0  0  0  0
   -1.3173   -0.2583    0.1010 C   0  0  0  0  0  0  0  0  0  0  0  0
    0.8804    0.6182   -0.0338 C   0  0  0  0  0  0  0  0  0  0  0  0
   -2.1403   -1.3762    0.2396 C   0  0  0  0  0  0  0  0  0  0  0  0
   -0.9899    2.1700   -0.1811 C   0  0  0  0  0  0  0  0  0  0  0  0
   -3.2688    1.1683   -0.0395 C   0  0  0  0  0  0  0  0  0  0  0  0
    2.3165    0.2754   -0.0049 C   0  0  0  0  0  0  0  0  0  0  0  0
    0.4592    1.8859   -0.1685 C   0  0  0  0  0  0  0  0  0  0  0  0
   -3.5268   -1.2212    0.2383 C   0  0  0  0  0  0  0  0  0  0  0  0
   -4.0896    0.0483    0.0990 C   0  0  0  0  0  0  0  0  0  0  0  0
    3.2459    1.1887    0.4988 C   0  0  0  0  0  0  0  0  0  0  0  0
    2.7517   -0.9642   -0.4799 C   0  0  0  0  0  0  0  0  0  0  0  0
    4.6024    0.8646    0.5270 C   0  0  0  0  0  0  0  0  0  0  0  0
    4.1080   -1.2884   -0.4515 C   0  0  0  0  0  0  0  0  0  0  0  0
    5.0334   -0.3741    0.0519 C   0  0  0  0  0  0  0  0  0  0  0  0
   -1.3539   -3.3543   -0.8209 C   0  0  0  0  0  0  0  0  0  0  0  0
    1.1198    2.7359   -0.2931 H   0  0  0  0  0  0  0  0  0  0  0  0
   -5.1702    0.1715    0.0977 H   0  0  0  0  0  0  0  0  0  0  0  0
    2.9483    2.1544    0.8986 H   0  0  0  0  0  0  0  0  0  0  0  0
    2.0533   -1.6926   -0.8850 H   0  0  0  0  0  0  0  0  0  0  0  0
    5.3130    1.5834    0.9262 H   0  0  0  0  0  0  0  0  0  0  0  0
    4.4382   -2.2542   -0.8245 H   0  0  0  0  0  0  0  0  0  0  0  0
   -3.2016    3.0834   -0.2619 H   0  0  0  0  0  0  0  0  0  0  0  0
   -5.2705   -2.0058    0.3481 H   0  0  0  0  0  0  0  0  0  0  0  0
   -0.6473   -2.8211   -1.4647 H   0  0  0  0  0  0  0  0  0  0  0  0
   -2.2897   -3.5343   -1.3593 H   0  0  0  0  0  0  0  0  0  0  0  0
   -0.9171   -4.3189   -0.5478 H   0  0  0  0  0  0  0  0  0  0  0  0
    6.8515    0.0563    0.4587 H   0  0  0  0  0  0  0  0  0  0  0  0
  1  8  1  0  0  0  0
  1  9  1  0  0  0  0
  2 10  1  0  0  0  0
  2 22  1  0  0  0  0
  3 12  1  0  0  0  0
  3 29  1  0  0  0  0
  4 15  1  0  0  0  0
  4 30  1  0  0  0  0
  5 11  2  0  0  0  0
  6 21  1  0  0  0  0
  6 34  1  0  0  0  0
  7  8  2  0  0  0  0
  7 11  1  0  0  0  0
  7 12  1  0  0  0  0
  8 10  1  0  0  0  0
  9 13  1  0  0  0  0
  9 14  2  0  0  0  0
 10 15  2  0  0  0  0
 11 14  1  0  0  0  0
 12 16  2  0  0  0  0
 13 17  2  0  0  0  0
 13 18  1  0  0  0  0
 14 23  1  0  0  0  0
 15 16  1  0  0  0  0
 16 24  1  0  0  0  0
 17 19  1  0  0  0  0
 17 25  1  0  0  0  0
 18 20  2  0  0  0  0
 18 26  1  0  0  0  0
 19 21  2  0  0  0  0
 19 27  1  0  0  0  0
 20 21  1  0  0  0  0
 20 28  1  0  0  0  0
 22 31  1  0  0  0  0
 22 32  1  0  0  0  0
 22 33  1  0  0  0  0
M  END
> <PUBCHEM_COMPOUND_CID>
5322078

> <PUBCHEM_CONFORMER_RMSD>
0.6

> <PUBCHEM_CONFORMER_DIVERSEORDER>
1
2

> <PUBCHEM_MMFF94_PARTIAL_CHARGES>
31
1 -0.16
10 0.08
11 0.47
12 0.08
13 0.03
14 -0.14
15 0.08
16 -0.15
17 -0.15
18 -0.15
19 -0.15
2 -0.36
20 -0.15
21 0.08
22 0.28
23 0.15
24 0.15
25 0.15
26 0.15
27 0.15
28 0.15
29 0.45
3 -0.53
30 0.45
34 0.45
4 -0.53
5 -0.57
6 -0.53
7 0.09
8 0.08
9 0.05

> <PUBCHEM_EFFECTIVE_ROTOR_COUNT>
2

> <PUBCHEM_PHARMACOPHORE_FEATURES>
9
1 1 acceptor
1 2 acceptor
1 3 donor
1 4 donor
1 5 acceptor
1 6 donor
6 1 7 8 9 11 14 rings
6 13 17 18 19 20 21 rings
6 7 8 10 12 15 16 rings

> <PUBCHEM_HEAVY_ATOM_COUNT>
22

> <PUBCHEM_ATOM_DEF_STEREO_COUNT>
0

> <PUBCHEM_ATOM_UDEF_STEREO_COUNT>
0

> <PUBCHEM_BOND_DEF_STEREO_COUNT>
0

> <PUBCHEM_BOND_UDEF_STEREO_COUNT>
0

> <PUBCHEM_ISOTOPIC_ATOM_COUNT>
0

> <PUBCHEM_COMPONENT_COUNT>
1

> <PUBCHEM_CACTVS_TAUTO_COUNT>
57

> <PUBCHEM_CONFORMER_ID>
0051355E00000001

> <PUBCHEM_MMFF94_ENERGY>
77.3084

> <PUBCHEM_FEATURE_SELFOVERLAP>
45.706

> <PUBCHEM_SHAPE_FINGERPRINT>
10319926 262 18267847446951544490
10411042 1 18265054828887637027
105312 117 17678162803396717525
10616163 171 18410294705309678350
10967382 1 17905611356468071189
11014199 57 17550099707666187918
11524674 6 17203325598865111734
11720765 8 16550834953541801207
12107183 9 17540808396566500384
12236239 1 17458347408184971592
12553582 1 18050294965679340567
13140716 1 18410865382057049481
13288520 33 18409168817886382260
13402501 40 18343304743141992566
13544592 145 18200042720317863886
14790565 3 17979079275790362273
15042514 8 18408889563729731499
15196674 1 18410293627230481192
15352361 1 18337954600838422482
15375358 24 18272652329264422550
17804303 29 18412547630114527928
1813 80 17530961427783525068
19141452 34 18272654601239110727
19591789 44 18410293627167288171
200 152 17417805115406654856
20510252 161 18270962336695308473
21033648 29 17988911276015634344
21065198 57 18413105074442017880
21267235 1 18335991942570864363
2297311 6 18411710885002399428
23366157 5 17824544312407571156
23402539 116 18342451556546856367
23557571 272 18341620330119816076
23559900 14 18341328886740269580
2748010 2 18411145706113893255
335352 9 18409167732172273293
4214541 1 18410856542808313936
5104073 3 18413105057225265192
5364581 5 18055330674128836640
559249 180 18262232227703866802
59755656 215 18336544928733019479
67856867 119 18187651362239789820
69090 78 18412823560335626894
9709674 26 18342742871304373550

> <PUBCHEM_SHAPE_MULTIPOLES>
417.53
10.28
3.14
0.69
11.45
0.45
0.02
2.16
-0.88
-3.27
0.47
0.06
0.1
0.63

> <PUBCHEM_SHAPE_SELFOVERLAP>
929.421

> <PUBCHEM_SHAPE_VOLUME>
221.7

> <PUBCHEM_COORDINATE_TYPE>
2
5
10

$$$$
5488686
  -OEChem-07302621033D

 54 57  0     1  0  0  0  0  0999 V2000
    2.7296    0.4636    0.5950 O   0  0  0  0  0  0  0  0  0  0  0  0
    1.8940   -0.4352   -1.3894 O   0  0  0  0  0  0  0  0  0  0  0  0
    6.1728    1.7072   -1.2663 O   0  0  0  0  0  0  0  0  0  0  0  0
    6.0796    1.5336    1.6176 O   0  0  0  0  0  0  0  0  0  0  0  0
    4.5045   -0.3959   -2.4808 O   0  0  0  0  0  0  0  0  0  0  0  0
    2.3369    0.5250    3.3150 O   0  0  0  0  0  0  0  0  0  0  0  0
   -2.7185   -0.5897    0.0986 O   0  0  0  0  0  0  0  0  0  0  0  0
   -2.3218   -3.1327    0.9487 O   0  0  0  0  0  0  0  0  0  0  0  0
    0.1446   -4.3477    0.6459 O   0  0  0  0  0  0  0  0  0  0  0  0
    0.2464    1.5907   -1.6489 O   0  0  0  0  0  0  0  0  0  0  0  0
    5.3420    0.7899   -0.5531 C   0  0  1  0  0  0  0  0  0  0  0  0
    4.9389    1.4457    0.7678 C   0  0  1  0  0  0  0  0  0  0  0  0
    4.1149    0.4506   -1.3995 C   0  0  2  0  0  0  0  0  0  0  0  0
    3.8481    0.6315    1.4678 C   0  0  1  0  0  0  0  0  0  0  0  0
    3.0562   -0.2821   -0.5754 C   0  0  1  0  0  0  0  0  0  0  0  0
    3.3467    1.3266    2.7296 C   0  0  0  0  0  0  0  0  0  0  0  0
    0.8282   -1.0673   -0.8193 C   0  0  0  0  0  0  0  0  0  0  0  0
   -0.4174   -0.4538   -0.6673 C   0  0  0  0  0  0  0  0  0  0  0  0
    1.0078   -2.3776   -0.3747 C   0  0  0  0  0  0  0  0  0  0  0  0
   -1.4752   -1.1427   -0.0763 C   0  0  0  0  0  0  0  0  0  0  0  0
   -1.2927   -2.4526    0.3677 C   0  0  0  0  0  0  0  0  0  0  0  0
   -0.0501   -3.0690    0.2177 C   0  0  0  0  0  0  0  0  0  0  0  0
   -0.6372    0.9267   -1.1249 C   0  0  0  0  0  0  0  0  0  0  0  0
   -2.9317    0.7082   -0.3402 C   0  0  0  0  0  0  0  0  0  0  0  0
   -1.9928    1.4748   -0.9170 C   0  0  0  0  0  0  0  0  0  0  0  0
   -4.3010    1.2057   -0.0986 C   0  0  0  0  0  0  0  0  0  0  0  0
   -4.5228    2.5651    0.1368 C   0  0  0  0  0  0  0  0  0  0  0  0
   -5.3814    0.3198   -0.1051 C   0  0  0  0  0  0  0  0  0  0  0  0
   -3.1652   -3.8911    0.0850 C   0  0  0  0  0  0  0  0  0  0  0  0
   -5.8163    3.0352    0.3643 C   0  0  0  0  0  0  0  0  0  0  0  0
   -6.6749    0.7899    0.1223 C   0  0  0  0  0  0  0  0  0  0  0  0
   -6.8922    2.1477    0.3570 C   0  0  0  0  0  0  0  0  0  0  0  0
    5.9531   -0.1028   -0.3752 H   0  0  0  0  0  0  0  0  0  0  0  0
    4.5901    2.4675    0.5697 H   0  0  0  0  0  0  0  0  0  0  0  0
    3.6959    1.3630   -1.8416 H   0  0  0  0  0  0  0  0  0  0  0  0
    4.2219   -0.3613    1.7533 H   0  0  0  0  0  0  0  0  0  0  0  0
    3.4413   -1.2709   -0.2944 H   0  0  0  0  0  0  0  0  0  0  0  0
    2.9080    2.3037    2.5021 H   0  0  0  0  0  0  0  0  0  0  0  0
    4.1412    1.4591    3.4687 H   0  0  0  0  0  0  0  0  0  0  0  0
    5.6502    2.5051   -1.4555 H   0  0  0  0  0  0  0  0  0  0  0  0
    5.8704    2.1568    2.3333 H   0  0  0  0  0  0  0  0  0  0  0  0
    3.7024   -0.6071   -2.9887 H   0  0  0  0  0  0  0  0  0  0  0  0
    1.6350    0.4053    2.6525 H   0  0  0  0  0  0  0  0  0  0  0  0
    1.9601   -2.8858   -0.5021 H   0  0  0  0  0  0  0  0  0  0  0  0
   -2.1653    2.4847   -1.2701 H   0  0  0  0  0  0  0  0  0  0  0  0
   -0.6733   -4.6603    1.0692 H   0  0  0  0  0  0  0  0  0  0  0  0
   -3.7096    3.2850    0.1724 H   0  0  0  0  0  0  0  0  0  0  0  0
   -5.2419   -0.7420   -0.2935 H   0  0  0  0  0  0  0  0  0  0  0  0
   -2.5881   -4.6457   -0.4587 H   0  0  0  0  0  0  0  0  0  0  0  0
   -3.6810   -3.2337   -0.6222 H   0  0  0  0  0  0  0  0  0  0  0  0
   -3.9143   -4.3995    0.6980 H   0  0  0  0  0  0  0  0  0  0  0  0
   -5.9855    4.0915    0.5520 H   0  0  0  0  0  0  0  0  0  0  0  0
   -7.5131    0.0994    0.1151 H   0  0  0  0  0  0  0  0  0  0  0  0
   -7.8992    2.5135    0.5350 H   0  0  0  0  0  0  0  0  0  0  0  0
  1 14  1  0  0  0  0
  1 15  1  0  0  0  0
  2 15  1  0  0  0  0
  2 17  1  0  0  0  0
  3 11  1  0  0  0  0
  3 40  1  0  0  0  0
  4 12  1  0  0  0  0
  4 41  1  0  0  0  0
  5 13  1  0  0  0  0
  5 42  1  0  0  0  0
  6 16  1  0  0  0  0
  6 43  1  0  0  0  0
  7 20  1  0  0  0  0
  7 24  1  0  0  0  0
  8 21  1  0  0  0  0
  8 29  1  0  0  0  0
  9 22  1  0  0  0  0
  9 46  1  0  0  0  0
 10 23  2  0  0  0  0
 11 12  1  0  0  0  0
 11 13  1  0  0  0  0
 11 33  1  0  0  0  0
 12 14  1  0  0  0  0
 12 34  1  0  0  0  0
 13 15  1  0  0  0  0
 13 35  1  0  0  0  0
 14 16  1  0  0  0  0
 14 36  1  0  0  0  0
 15 37  1  0  0  0  0
 16 38  1  0  0  0  0
 16 39  1  0  0  0  0
 17 18  2  0  0  0  0
 17 19  1  0  0  0  0
 18 20  1  0  0  0  0
 18 23  1  0  0  0  0
 19 22  2  0  0  0  0
 19 44  1  0  0  0  0
 20 21  2  0  0  0  0
 21 22  1  0  0  0  0
 23 25  1  0  0  0  0
 24 25  2  0  0  0  0
 24 26  1  0  0  0  0
 25 45  1  0  0  0  0
 26 27  2  0  0  0  0
 26 28  1  0  0  0  0
 27 30  1  0  0  0  0
 27 47  1  0  0  0  0
 28 31  2  0  0  0  0
 28 48  1  0  0  0  0
 29 49  1  0  0  0  0
 29 50  1  0  0  0  0
 29 51  1  0  0  0  0
 30 32  2  0  0  0  0
 30 52  1  0  0  0  0
 31 32  1  0  0  0  0
 31 53  1  0  0  0  0
 32 54  1  0  0  0  0
M  END
> <PUBCHEM_COMPOUND_CID>
5488686

> <PUBCHEM_CONFORMER_RMSD>
0.8

> <PUBCHEM_CONFORMER_DIVERSEORDER>
1
58
83
34
72
98
56
62
71
7
74
80
64
18
86
8
90
24
35
54
89
4
28
10
15
63
37
32
45
29
39
2
22
75
95
51
27
38
3
79
48
11
50
91
87
65
78
49
6
17
93
9
85
60
61
36
20
67
25
5
84
43
33
26
88
53
46
52
31
77
94
55
70
41
19
97
66
96
69
30
21
13
44
76
73
40
23
57
81
16
59
82
92
14
47
12
42
68

> <PUBCHEM_MMFF94_PARTIAL_CHARGES>
44
1 -0.56
10 -0.57
11 0.28
12 0.28
13 0.28
14 0.28
15 0.56
16 0.28
17 0.08
18 0.09
19 -0.15
2 -0.36
20 0.08
21 0.08
22 0.08
23 0.47
24 0.05
25 -0.14
26 0.03
27 -0.15
28 -0.15
29 0.28
3 -0.68
30 -0.15
31 -0.15
32 -0.15
4 -0.68
40 0.4
41 0.4
42 0.4
43 0.4
44 0.15
45 0.15
46 0.45
47 0.15
48 0.15
5 -0.68
52 0.15
53 0.15
54 0.15
6 -0.68
7 -0.16
8 -0.36
9 -0.53

> <PUBCHEM_EFFECTIVE_ROTOR_COUNT>
6.2

> <PUBCHEM_PHARMACOPHORE_FEATURES>
18
1 1 acceptor
1 10 acceptor
1 2 acceptor
1 3 acceptor
1 3 donor
1 4 acceptor
1 4 donor
1 5 acceptor
1 5 donor
1 6 acceptor
1 6 donor
1 7 acceptor
1 8 acceptor
1 9 donor
6 1 11 12 13 14 15 rings
6 17 18 19 20 21 22 rings
6 26 27 28 30 31 32 rings
6 7 18 20 23 24 25 rings

> <PUBCHEM_HEAVY_ATOM_COUNT>
32

> <PUBCHEM_ATOM_DEF_STEREO_COUNT>
5

> <PUBCHEM_ATOM_UDEF_STEREO_COUNT>
0

> <PUBCHEM_BOND_DEF_STEREO_COUNT>
0

> <PUBCHEM_BOND_UDEF_STEREO_COUNT>
0

> <PUBCHEM_ISOTOPIC_ATOM_COUNT>
0

> <PUBCHEM_COMPONENT_COUNT>
1

> <PUBCHEM_CACTVS_TAUTO_COUNT>
5

> <PUBCHEM_CONFORMER_ID>
0053C02E00000001

> <PUBCHEM_MMFF94_ENERGY>
116.2716

> <PUBCHEM_FEATURE_SELFOVERLAP>
91.462

> <PUBCHEM_SHAPE_FINGERPRINT>
10074138 170 18042118911758977499
10165383 225 18410296874415596300
10411042 1 17688601871897738271
10493431 412 18335426746871488111
10674148 151 17967258594721759582
11070050 100 18339914914301647025
11578080 2 18201440310891584722
12107183 9 18260540083909707138
12422481 6 17459740429045085917
12788726 201 17828493796570427883
13540713 5 17606694770412319901
13692114 37 18341608274569122879
13726171 33 18192160502211733624
13782708 43 17987247801624573590
14068700 686 18119814617294752973
14289278 72 18265317453216170930
14341114 328 17240763999528340872
14347332 77 10303545973939569500
14739800 52 18057873655165318065
14790565 3 18261690207073624269
14840074 17 17603585231412536765
15183329 4 14620793795092594553
15629462 23 16914560747960269878
15927050 60 18410296882969465175
20554085 129 18412256216941982833
21033648 29 17988352788981496152
21475661 188 17917135182745637904
21792961 116 17846236466480876500
221357 26 16845577474528518256
22149856 69 18045810939505042897
22224240 67 18409727357557503565
23559900 14 18339092518765549046
25147074 1 17605566650149712509
25222932 49 16227202308435018913
3459 39 18335127666586986957
34797466 226 17131552756911238245
350125 39 18046068155314241558
3918712 181 18411975828587821065
4340502 62 18410577241253613415
437795 51 17846499232173844177
508706 21 18199180866225919075
5104073 3 18118694210735004009
563151 248 17822279177067825650
5758199 1 18339651057982715805
6086070 43 17632857538279891002
7808743 9 18335703862034640204
9658208 31 18413395336289060463

> <PUBCHEM_SHAPE_MULTIPOLES>
599.85
14.86
3.91
1.84
5.41
4.74
0.96
-14.83
1.16
3.74
1.03
-3.58
-0.76
0.96

> <PUBCHEM_SHAPE_SELFOVERLAP>
1310.647

> <PUBCHEM_SHAPE_VOLUME>
322

> <PUBCHEM_COORDINATE_TYPE>
2
5
10

$$$$
12004622
  -OEChem-07302621033D

 53 56  0     1  0  0  0  0  0999 V2000
    2.9012   -0.4522   -0.2842 O   0  0  0  0  0  0  0  0  0  0  0  0
    1.9794    0.4642    1.6686 O   0  0  0  0  0  0  0  0  0  0  0  0
    6.1185    0.9382    0.5404 O   0  0  0  0  0  0  0  0  0  0  0  0
    3.9130   -1.4313    2.2194 O   0  0  0  0  0  0  0  0  0  0  0  0
    6.3641   -1.0844   -1.3254 O   0  0  0  0  0  0  0  0  0  0  0  0
    4.4915   -1.5665   -3.2094 O   0  0  0  0  0  0  0  0  0  0  0  0
    2.4610   -1.9940   -2.2657 O   0  0  0  0  0  0  0  0  0  0  0  0
   -2.5561   -0.1785    0.3817 O   0  0  0  0  0  0  0  0  0  0  0  0
   -0.2945   -1.1110    1.5480 O   0  0  0  0  0  0  0  0  0  0  0  0
   -0.2718    3.9890   -0.5719 O   0  0  0  0  0  0  0  0  0  0  0  0
   -2.7704    3.5517   -1.2428 O   0  0  0  0  0  0  0  0  0  0  0  0
    5.5616   -0.3414    0.8398 C   0  0  1  0  0  0  0  0  0  0  0  0
    4.3003   -0.1631    1.6880 C   0  0  1  0  0  0  0  0  0  0  0  0
    5.2419   -1.1107   -0.4503 C   0  0  1  0  0  0  0  0  0  0  0  0
    3.1411    0.3866    0.8463 C   0  0  1  0  0  0  0  0  0  0  0  0
    4.0239   -0.5238   -1.1609 C   0  0  1  0  0  0  0  0  0  0  0  0
    3.5481   -1.4361   -2.2448 C   0  0  0  0  0  0  0  0  0  0  0  0
    0.8421    0.9375    1.0809 C   0  0  0  0  0  0  0  0  0  0  0  0
   -0.3054    0.1463    1.0177 C   0  0  0  0  0  0  0  0  0  0  0  0
    0.8359    2.2247    0.5418 C   0  0  0  0  0  0  0  0  0  0  0  0
   -1.4595    0.6454    0.4136 C   0  0  0  0  0  0  0  0  0  0  0  0
   -1.4637    1.9314   -0.1242 C   0  0  0  0  0  0  0  0  0  0  0  0
   -0.3172    2.7268   -0.0627 C   0  0  0  0  0  0  0  0  0  0  0  0
   -2.6948    2.4330   -0.7539 C   0  0  0  0  0  0  0  0  0  0  0  0
   -3.7152    0.2878   -0.2195 C   0  0  0  0  0  0  0  0  0  0  0  0
   -3.8455    1.5074   -0.7655 C   0  0  0  0  0  0  0  0  0  0  0  0
   -4.8337   -0.6761   -0.1940 C   0  0  0  0  0  0  0  0  0  0  0  0
   -0.6719   -1.2404    2.9168 C   0  0  0  0  0  0  0  0  0  0  0  0
   -5.7981   -0.6595   -1.2050 C   0  0  0  0  0  0  0  0  0  0  0  0
   -4.9329   -1.6096    0.8408 C   0  0  0  0  0  0  0  0  0  0  0  0
   -6.8543   -1.5702   -1.1814 C   0  0  0  0  0  0  0  0  0  0  0  0
   -5.9890   -2.5204    0.8644 C   0  0  0  0  0  0  0  0  0  0  0  0
   -6.9497   -2.5007   -0.1467 C   0  0  0  0  0  0  0  0  0  0  0  0
    6.3268   -0.8979    1.3939 H   0  0  0  0  0  0  0  0  0  0  0  0
    4.4897    0.5034    2.5372 H   0  0  0  0  0  0  0  0  0  0  0  0
    5.0475   -2.1597   -0.1940 H   0  0  0  0  0  0  0  0  0  0  0  0
    3.4104    1.3911    0.4955 H   0  0  0  0  0  0  0  0  0  0  0  0
    4.2136    0.4629   -1.6005 H   0  0  0  0  0  0  0  0  0  0  0  0
    6.3222    1.3739    1.3854 H   0  0  0  0  0  0  0  0  0  0  0  0
    3.0928   -1.2967    2.7246 H   0  0  0  0  0  0  0  0  0  0  0  0
    6.5632   -0.1533   -1.5233 H   0  0  0  0  0  0  0  0  0  0  0  0
    1.7233    2.8490    0.6089 H   0  0  0  0  0  0  0  0  0  0  0  0
    4.1986   -2.1639   -3.9302 H   0  0  0  0  0  0  0  0  0  0  0  0
   -4.7606    1.8803   -1.2101 H   0  0  0  0  0  0  0  0  0  0  0  0
    0.6132    4.3655   -0.4280 H   0  0  0  0  0  0  0  0  0  0  0  0
   -1.6963   -0.8869    3.0702 H   0  0  0  0  0  0  0  0  0  0  0  0
   -0.6238   -2.2990    3.1864 H   0  0  0  0  0  0  0  0  0  0  0  0
    0.0175   -0.6843    3.5599 H   0  0  0  0  0  0  0  0  0  0  0  0
   -5.7475    0.0341   -2.0401 H   0  0  0  0  0  0  0  0  0  0  0  0
   -4.2035   -1.6431    1.6465 H   0  0  0  0  0  0  0  0  0  0  0  0
   -7.5998   -1.5586   -1.9711 H   0  0  0  0  0  0  0  0  0  0  0  0
   -6.0646   -3.2441    1.6708 H   0  0  0  0  0  0  0  0  0  0  0  0
   -7.7717   -3.2104   -0.1288 H   0  0  0  0  0  0  0  0  0  0  0  0
  1 15  1  0  0  0  0
  1 16  1  0  0  0  0
  2 15  1  0  0  0  0
  2 18  1  0  0  0  0
  3 12  1  0  0  0  0
  3 39  1  0  0  0  0
  4 13  1  0  0  0  0
  4 40  1  0  0  0  0
  5 14  1  0  0  0  0
  5 41  1  0  0  0  0
  6 17  1  0  0  0  0
  6 43  1  0  0  0  0
  7 17  2  0  0  0  0
  8 21  1  0  0  0  0
  8 25  1  0  0  0  0
  9 19  1  0  0  0  0
  9 28  1  0  0  0  0
 10 23  1  0  0  0  0
 10 45  1  0  0  0  0
 11 24  2  0  0  0  0
 12 13  1  0  0  0  0
 12 14  1  0  0  0  0
 12 34  1  0  0  0  0
 13 15  1  0  0  0  0
 13 35  1  0  0  0  0
 14 16  1  0  0  0  0
 14 36  1  0  0  0  0
 15 37  1  0  0  0  0
 16 17  1  0  0  0  0
 16 38  1  0  0  0  0
 18 19  2  0  0  0  0
 18 20  1  0  0  0  0
 19 21  1  0  0  0  0
 20 23  2  0  0  0  0
 20 42  1  0  0  0  0
 21 22  2  0  0  0  0
 22 23  1  0  0  0  0
 22 24  1  0  0  0  0
 24 26  1  0  0  0  0
 25 26  2  0  0  0  0
 25 27  1  0  0  0  0
 26 44  1  0  0  0  0
 27 29  2  0  0  0  0
 27 30  1  0  0  0  0
 28 46  1  0  0  0  0
 28 47  1  0  0  0  0
 28 48  1  0  0  0  0
 29 31  1  0  0  0  0
 29 49  1  0  0  0  0
 30 32  2  0  0  0  0
 30 50  1  0  0  0  0
 31 33  2  0  0  0  0
 31 51  1  0  0  0  0
 32 33  1  0  0  0  0
 32 52  1  0  0  0  0
 33 53  1  0  0  0  0
M  END
> <PUBCHEM_COMPOUND_CID>
12004622

> <PUBCHEM_CONFORMER_RMSD>
1

> <PUBCHEM_CONFORMER_DIVERSEORDER>
2
474
660
200
79
635
42
54
279
273
334
138
468
529
449
361
71
621
147
266
57
113
479
453
349
7
386
72
552
144
124
522
94
406
95
104
189
464
420
20
641
424
21
122
430
3
163
256
14
294
131
246
74
85
665
591
291
112
191
48
140
507
525
4
39
198
251
32
408
286
28
496
289
36
162
299
383
92
250
26
70
303
390
11
90
50
557
82
13
16
105
282
60
459
55
5
316
117
441
288
393
34
270
423
462
106
25
378
433
366
588
119
346
132
438
615
115
1
182
8
238
353
129
257
237
300
96
102
219
597
9
315
153
211
195
27
193
328

> <PUBCHEM_MMFF94_PARTIAL_CHARGES>
45
1 -0.56
10 -0.53
11 -0.57
12 0.28
13 0.28
14 0.28
15 0.56
16 0.34
17 0.66
18 0.08
19 0.08
2 -0.36
20 -0.15
21 0.08
22 0.09
23 0.08
24 0.47
25 0.05
26 -0.14
27 0.03
28 0.28
29 -0.15
3 -0.68
30 -0.15
31 -0.15
32 -0.15
33 -0.15
39 0.4
4 -0.68
40 0.4
41 0.4
42 0.15
43 0.5
44 0.15
45 0.45
49 0.15
5 -0.68
50 0.15
51 0.15
52 0.15
53 0.15
6 -0.65
7 -0.57
8 -0.16
9 -0.36

> <PUBCHEM_EFFECTIVE_ROTOR_COUNT>
6.2

> <PUBCHEM_PHARMACOPHORE_FEATURES>
19
1 1 acceptor
1 10 donor
1 11 acceptor
1 2 acceptor
1 3 acceptor
1 3 donor
1 4 acceptor
1 4 donor
1 5 acceptor
1 5 donor
1 6 acceptor
1 7 acceptor
1 8 acceptor
1 9 acceptor
3 6 7 17 anion
6 1 12 13 14 15 16 rings
6 18 19 20 21 22 23 rings
6 27 29 30 31 32 33 rings
6 8 21 22 24 25 26 rings

> <PUBCHEM_HEAVY_ATOM_COUNT>
33

> <PUBCHEM_ATOM_DEF_STEREO_COUNT>
0

> <PUBCHEM_ATOM_UDEF_STEREO_COUNT>
5

> <PUBCHEM_BOND_DEF_STEREO_COUNT>
0

> <PUBCHEM_BOND_UDEF_STEREO_COUNT>
0

> <PUBCHEM_ISOTOPIC_ATOM_COUNT>
0

> <PUBCHEM_COMPONENT_COUNT>
1

> <PUBCHEM_CACTVS_TAUTO_COUNT>
4

> <PUBCHEM_CONFORMER_ID>
00B72D0E00000002

> <PUBCHEM_MMFF94_ENERGY>
116.3143

> <PUBCHEM_FEATURE_SELFOVERLAP>
96.609

> <PUBCHEM_SHAPE_FINGERPRINT>
10076449 9 17775294872117682366
10981352 41 18059288885649661063
11828532 37 17897733300143098963
12166972 35 17095517396659603516
12422481 6 17632579383655454311
12633257 1 11167931442430685499
13103583 49 14476952394075478917
13402501 40 18131633391465233278
13540713 5 17461699728827905121
13782708 43 18131064913825520106
14556957 393 16950562156320707557
14767858 380 17603583032547374283
14790565 3 17401197881639474569
15183329 4 16298383565366216255
15484559 13 15378822799333300914
15510800 12 18270403910123489847
16090146 7 16732989708225281115
1813 80 18412267254987042221
19246450 95 13685191755837080599
20775438 99 17758948612714741219
21033650 10 18044675108879430724
21267235 1 18188202213522954507
21315763 76 15502380028194497366
21623969 137 17704071798092920558
22122407 14 13695866987266298775
2260408 40 17560814246319229849
23559900 14 17970611095674346745
25222932 49 18338503214629210522
2838139 119 13551463766115519831
3388396 114 17096391559748882221
3633792 109 16660355944731048802
46194498 28 18342454876615098436
563151 74 16557327469927332594
58902169 19 15647043876467368643
6009941 240 17489312915340006321
6700243 42 18265912258213598020
7237137 82 17894902989250133909
7918774 8 18341059583553429711
86090 222 17775574143175693174

> <PUBCHEM_SHAPE_MULTIPOLES>
614.56
16.44
3.22
2.22
5.6
2.88
0.33
-13.52
4.44
3.19
0.95
-2.79
-1.51
2.22

> <PUBCHEM_SHAPE_SELFOVERLAP>
1351.214

> <PUBCHEM_SHAPE_VOLUME>
327

> <PUBCHEM_COORDINATE_TYPE>
2
5
10

$$$$
15511339
  -OEChem-07302621033D

 56 59  0     1  0  0  0  0  0999 V2000
    2.7555   -0.3314    0.0117 O   0  0  0  0  0  0  0  0  0  0  0  0
    1.7920    1.4041    1.2373 O   0  0  0  0  0  0  0  0  0  0  0  0
    6.3431    0.0996    1.9649 O   0  0  0  0  0  0  0  0  0  0  0  0
    6.2301   -1.3129   -0.5729 O   0  0  0  0  0  0  0  0  0  0  0  0
    4.3715    2.2871    1.9802 O   0  0  0  0  0  0  0  0  0  0  0  0
    4.4207   -2.6985   -1.9722 O   0  0  0  0  0  0  0  0  0  0  0  0
    2.3480   -2.6395   -0.9540 O   0  0  0  0  0  0  0  0  0  0  0  0
   -2.7002    0.0420    0.4632 O   0  0  0  0  0  0  0  0  0  0  0  0
   -0.4242   -0.1043    1.9271 O   0  0  0  0  0  0  0  0  0  0  0  0
   -0.5469    3.2650   -2.4473 O   0  0  0  0  0  0  0  0  0  0  0  0
   -3.0196    2.4613   -2.7994 O   0  0  0  0  0  0  0  0  0  0  0  0
    5.3855    0.3615    0.9380 C   0  0  1  0  0  0  0  0  0  0  0  0
    5.0960   -0.9541    0.2147 C   0  0  1  0  0  0  0  0  0  0  0  0
    4.1172    0.9468    1.5600 C   0  0  2  0  0  0  0  0  0  0  0  0
    3.8884   -0.8113   -0.7033 C   0  0  1  0  0  0  0  0  0  0  0  0
    2.9669    0.9701    0.5531 C   0  0  1  0  0  0  0  0  0  0  0  0
    3.4380   -2.1444   -1.2065 C   0  0  0  0  0  0  0  0  0  0  0  0
    0.6478    1.4810    0.4981 C   0  0  0  0  0  0  0  0  0  0  0  0
   -0.4710    0.7219    0.8423 C   0  0  0  0  0  0  0  0  0  0  0  0
    0.6051    2.3291   -0.6095 C   0  0  0  0  0  0  0  0  0  0  0  0
   -1.6330    0.8122    0.0758 C   0  0  0  0  0  0  0  0  0  0  0  0
   -1.6739    1.6599   -1.0300 C   0  0  0  0  0  0  0  0  0  0  0  0
   -0.5561    2.4218   -1.3778 C   0  0  0  0  0  0  0  0  0  0  0  0
   -2.9125    1.7370   -1.8195 C   0  0  0  0  0  0  0  0  0  0  0  0
    4.1204   -3.9854   -2.5213 C   0  0  0  0  0  0  0  0  0  0  0  0
   -3.8663    0.1054   -0.2843 C   0  0  0  0  0  0  0  0  0  0  0  0
   -4.0306    0.8866   -1.3637 C   0  0  0  0  0  0  0  0  0  0  0  0
   -4.9514   -0.7586    0.2225 C   0  0  0  0  0  0  0  0  0  0  0  0
   -0.8156    0.4501    3.1809 C   0  0  0  0  0  0  0  0  0  0  0  0
   -5.9017   -1.2817   -0.6582 C   0  0  0  0  0  0  0  0  0  0  0  0
   -5.0330   -1.0570    1.5851 C   0  0  0  0  0  0  0  0  0  0  0  0
   -6.9268   -2.0974   -0.1796 C   0  0  0  0  0  0  0  0  0  0  0  0
   -6.0583   -1.8729    2.0636 C   0  0  0  0  0  0  0  0  0  0  0  0
   -7.0052   -2.3930    1.1812 C   0  0  0  0  0  0  0  0  0  0  0  0
    5.8484    1.0912    0.2621 H   0  0  0  0  0  0  0  0  0  0  0  0
    4.9429   -1.7564    0.9471 H   0  0  0  0  0  0  0  0  0  0  0  0
    3.8313    0.3780    2.4535 H   0  0  0  0  0  0  0  0  0  0  0  0
    4.0786   -0.1654   -1.5696 H   0  0  0  0  0  0  0  0  0  0  0  0
    3.2042    1.6780   -0.2519 H   0  0  0  0  0  0  0  0  0  0  0  0
    7.1311   -0.2788    1.5384 H   0  0  0  0  0  0  0  0  0  0  0  0
    6.3761   -0.6100   -1.2290 H   0  0  0  0  0  0  0  0  0  0  0  0
    5.1203    2.2597    2.6002 H   0  0  0  0  0  0  0  0  0  0  0  0
    1.4694    2.9366   -0.8659 H   0  0  0  0  0  0  0  0  0  0  0  0
    3.9464   -4.7081   -1.7184 H   0  0  0  0  0  0  0  0  0  0  0  0
    3.2495   -3.9220   -3.1805 H   0  0  0  0  0  0  0  0  0  0  0  0
    4.9821   -4.3139   -3.1084 H   0  0  0  0  0  0  0  0  0  0  0  0
   -4.9517    0.9556   -1.9302 H   0  0  0  0  0  0  0  0  0  0  0  0
    0.3227    3.6952   -2.5140 H   0  0  0  0  0  0  0  0  0  0  0  0
   -0.7317   -0.3308    3.9416 H   0  0  0  0  0  0  0  0  0  0  0  0
   -0.1571    1.2795    3.4574 H   0  0  0  0  0  0  0  0  0  0  0  0
   -1.8547    0.7920    3.1444 H   0  0  0  0  0  0  0  0  0  0  0  0
   -5.8631   -1.0937   -1.7279 H   0  0  0  0  0  0  0  0  0  0  0  0
   -4.3141   -0.6589    2.2971 H   0  0  0  0  0  0  0  0  0  0  0  0
   -7.6615   -2.5070   -0.8668 H   0  0  0  0  0  0  0  0  0  0  0  0
   -6.1206   -2.1020    3.1235 H   0  0  0  0  0  0  0  0  0  0  0  0
   -7.8029   -3.0290    1.5537 H   0  0  0  0  0  0  0  0  0  0  0  0
  1 15  1  0  0  0  0
  1 16  1  0  0  0  0
  2 16  1  0  0  0  0
  2 18  1  0  0  0  0
  3 12  1  0  0  0  0
  3 40  1  0  0  0  0
  4 13  1  0  0  0  0
  4 41  1  0  0  0  0
  5 14  1  0  0  0  0
  5 42  1  0  0  0  0
  6 17  1  0  0  0  0
  6 25  1  0  0  0  0
  7 17  2  0  0  0  0
  8 21  1  0  0  0  0
  8 26  1  0  0  0  0
  9 19  1  0  0  0  0
  9 29  1  0  0  0  0
 10 23  1  0  0  0  0
 10 48  1  0  0  0  0
 11 24  2  0  0  0  0
 12 13  1  0  0  0  0
 12 14  1  0  0  0  0
 12 35  1  0  0  0  0
 13 15  1  0  0  0  0
 13 36  1  0  0  0  0
 14 16  1  0  0  0  0
 14 37  1  0  0  0  0
 15 17  1  0  0  0  0
 15 38  1  0  0  0  0
 16 39  1  0  0  0  0
 18 19  2  0  0  0  0
 18 20  1  0  0  0  0
 19 21  1  0  0  0  0
 20 23  2  0  0  0  0
 20 43  1  0  0  0  0
 21 22  2  0  0  0  0
 22 23  1  0  0  0  0
 22 24  1  0  0  0  0
 24 27  1  0  0  0  0
 25 44  1  0  0  0  0
 25 45  1  0  0  0  0
 25 46  1  0  0  0  0
 26 27  2  0  0  0  0
 26 28  1  0  0  0  0
 27 47  1  0  0  0  0
 28 30  2  0  0  0  0
 28 31  1  0  0  0  0
 29 49  1  0  0  0  0
 29 50  1  0  0  0  0
 29 51  1  0  0  0  0
 30 32  1  0  0  0  0
 30 52  1  0  0  0  0
 31 33  2  0  0  0  0
 31 53  1  0  0  0  0
 32 34  2  0  0  0  0
 32 54  1  0  0  0  0
 33 34  1  0  0  0  0
 33 55  1  0  0  0  0
 34 56  1  0  0  0  0
M  END
> <PUBCHEM_COMPOUND_CID>
15511339

> <PUBCHEM_CONFORMER_RMSD>
1

> <PUBCHEM_CONFORMER_DIVERSEORDER>
1
53
42
56
63
69
68
25
47
14
71
60
72
8
6
74
12
46
31
62
65
27
7
52
57
11
32
54
66
15
58
5
28
3
75
9
36
48
19
73
4
70
38
16
51
2
21
35
49
24
34
26
29
44
22
33
55
61
10
13
17
37
20
30
67
41
64
40
50
59
23
39
43
45
18

> <PUBCHEM_MMFF94_PARTIAL_CHARGES>
45
1 -0.56
10 -0.53
11 -0.57
12 0.28
13 0.28
14 0.28
15 0.34
16 0.56
17 0.66
18 0.08
19 0.08
2 -0.36
20 -0.15
21 0.08
22 0.09
23 0.08
24 0.47
25 0.28
26 0.05
27 -0.14
28 0.03
29 0.28
3 -0.68
30 -0.15
31 -0.15
32 -0.15
33 -0.15
34 -0.15
4 -0.68
40 0.4
41 0.4
42 0.4
43 0.15
47 0.15
48 0.45
5 -0.68
52 0.15
53 0.15
54 0.15
55 0.15
56 0.15
6 -0.43
7 -0.57
8 -0.16
9 -0.36

> <PUBCHEM_EFFECTIVE_ROTOR_COUNT>
7.2

> <PUBCHEM_PHARMACOPHORE_FEATURES>
17
1 1 acceptor
1 10 donor
1 11 acceptor
1 2 acceptor
1 3 acceptor
1 3 donor
1 4 acceptor
1 4 donor
1 5 acceptor
1 5 donor
1 7 acceptor
1 8 acceptor
1 9 acceptor
6 1 12 13 14 15 16 rings
6 18 19 20 21 22 23 rings
6 28 30 31 32 33 34 rings
6 8 21 22 24 26 27 rings

> <PUBCHEM_HEAVY_ATOM_COUNT>
34

> <PUBCHEM_ATOM_DEF_STEREO_COUNT>
5

> <PUBCHEM_ATOM_UDEF_STEREO_COUNT>
0

> <PUBCHEM_BOND_DEF_STEREO_COUNT>
0

> <PUBCHEM_BOND_UDEF_STEREO_COUNT>
0

> <PUBCHEM_ISOTOPIC_ATOM_COUNT>
0

> <PUBCHEM_COMPONENT_COUNT>
1

> <PUBCHEM_CACTVS_TAUTO_COUNT>
4

> <PUBCHEM_CONFORMER_ID>
00ECAF2B00000001

> <PUBCHEM_MMFF94_ENERGY>
117.72

> <PUBCHEM_FEATURE_SELFOVERLAP>
86.391

> <PUBCHEM_SHAPE_FINGERPRINT>
10076449 9 18341341054530286380
10669705 251 18265902539304824435
11135926 11 17775273976980428862
11513181 2 17103423109098166907
11763715 3 17914085098756646224
11828532 37 17096940281361854875
12422481 6 18272096019810690583
12623949 98 18340212980642024519
12633257 1 13326559727362684123
13782708 43 18409444769662140946
14294032 229 16445013225388114053
14556957 393 15430032137417695487
14767858 380 16298381375227853017
15183329 4 14201388396260378323
15484559 13 14724424230546812954
15510800 12 18334857229823945863
16090146 7 15213020431783793641
1813 80 18187088377509508701
19246450 95 15624547735555878211
20775438 99 17173775347515811987
21033650 10 17387705903202976588
21267235 1 17458338702702851529
21421861 104 16271938086067296140
21623969 137 18272085015402747274
2260408 40 18272384078476406441
25222932 49 18114730620913077274
2838139 119 11602814710013735087
3044373 233 18126583227185117014
3388396 114 15502960591286964271
46194498 28 18333732450761045596
563151 74 17558825341216577417
58902169 19 14201385084766902515
6009941 240 18200594688267198049
6695519 79 17487023848095125896
6700243 42 17823708468468110935
7918774 8 18187657916037694443
86090 222 18341341041187325730

> <PUBCHEM_SHAPE_MULTIPOLES>
635.14
16.69
3.53
2.64
7.12
1.43
0.15
14.54
3.96
-1.47
-2.97
-0.25
-0.36
5.64

> <PUBCHEM_SHAPE_SELFOVERLAP>
1388.866

> <PUBCHEM_SHAPE_VOLUME>
340.9

> <PUBCHEM_COORDINATE_TYPE>
2
5
10

$$$$
21721889
  -OEChem-07302621033D

 38 40  0     0  0  0  0  0  0999 V2000
    0.8565    0.3576    0.0861 O   0  0  0  0  0  0  0  0  0  0  0  0
   -1.2633    2.0342    0.2917 O   0  0  0  0  0  0  0  0  0  0  0  0
   -3.8353    1.0329    0.4731 O   0  0  0  0  0  0  0  0  0  0  0  0
   -2.1894   -3.4094    0.2496 O   0  0  0  0  0  0  0  0  0  0  0  0
    0.4108   -3.6918    0.0400 O   0  0  0  0  0  0  0  0  0  0  0  0
   -3.9873    1.0581   -1.8628 O   0  0  0  0  0  0  0  0  0  0  0  0
   -0.6205   -1.5692    0.1623 C   0  0  0  0  0  0  0  0  0  0  0  0
   -0.3968   -0.1935    0.1736 C   0  0  0  0  0  0  0  0  0  0  0  0
   -1.4737    0.6871    0.2781 C   0  0  0  0  0  0  0  0  0  0  0  0
    1.9457   -0.4930   -0.0265 C   0  0  0  0  0  0  0  0  0  0  0  0
   -1.9194   -2.0746    0.2548 C   0  0  0  0  0  0  0  0  0  0  0  0
    0.5333   -2.4748    0.0528 C   0  0  0  0  0  0  0  0  0  0  0  0
   -2.7726    0.1865    0.3705 C   0  0  0  0  0  0  0  0  0  0  0  0
    1.8599   -1.8327   -0.0418 C   0  0  0  0  0  0  0  0  0  0  0  0
   -2.9947   -1.1914    0.3588 C   0  0  0  0  0  0  0  0  0  0  0  0
    3.2451    0.2038   -0.1089 C   0  0  0  0  0  0  0  0  0  0  0  0
    4.0675    0.0169   -1.2201 C   0  0  0  0  0  0  0  0  0  0  0  0
    3.6503    1.0487    0.9244 C   0  0  0  0  0  0  0  0  0  0  0  0
    5.2950    0.6748   -1.2979 C   0  0  0  0  0  0  0  0  0  0  0  0
    4.8779    1.7066    0.8464 C   0  0  0  0  0  0  0  0  0  0  0  0
    5.7001    1.5196   -0.2648 C   0  0  0  0  0  0  0  0  0  0  0  0
   -1.0637    2.6449    1.5644 C   0  0  0  0  0  0  0  0  0  0  0  0
   -4.3835    1.4158   -0.7614 C   0  0  0  0  0  0  0  0  0  0  0  0
   -5.5420    2.3431   -0.5422 C   0  0  0  0  0  0  0  0  0  0  0  0
    2.7278   -2.4781   -0.1187 H   0  0  0  0  0  0  0  0  0  0  0  0
   -4.0089   -1.5773    0.4321 H   0  0  0  0  0  0  0  0  0  0  0  0
    3.7671   -0.6336   -2.0380 H   0  0  0  0  0  0  0  0  0  0  0  0
    3.0221    1.2040    1.7982 H   0  0  0  0  0  0  0  0  0  0  0  0
    5.9348    0.5303   -2.1635 H   0  0  0  0  0  0  0  0  0  0  0  0
    5.1937    2.3642    1.6510 H   0  0  0  0  0  0  0  0  0  0  0  0
   -1.3703   -3.9220    0.1723 H   0  0  0  0  0  0  0  0  0  0  0  0
    6.6558    2.0321   -0.3255 H   0  0  0  0  0  0  0  0  0  0  0  0
   -0.9070    3.7159    1.4092 H   0  0  0  0  0  0  0  0  0  0  0  0
   -0.1785    2.2302    2.0571 H   0  0  0  0  0  0  0  0  0  0  0  0
   -1.9448    2.5092    2.1993 H   0  0  0  0  0  0  0  0  0  0  0  0
   -6.3164    1.8352    0.0378 H   0  0  0  0  0  0  0  0  0  0  0  0
   -5.9628    2.6331   -1.5092 H   0  0  0  0  0  0  0  0  0  0  0  0
   -5.2009    3.2433   -0.0252 H   0  0  0  0  0  0  0  0  0  0  0  0
  1  8  1  0  0  0  0
  1 10  1  0  0  0  0
  2  9  1  0  0  0  0
  2 22  1  0  0  0  0
  3 13  1  0  0  0  0
  3 23  1  0  0  0  0
  4 11  1  0  0  0  0
  4 31  1  0  0  0  0
  5 12  2  0  0  0  0
  6 23  2  0  0  0  0
  7  8  2  0  0  0  0
  7 11  1  0  0  0  0
  7 12  1  0  0  0  0
  8  9  1  0  0  0  0
  9 13  2  0  0  0  0
 10 14  2  0  0  0  0
 10 16  1  0  0  0  0
 11 15  2  0  0  0  0
 12 14  1  0  0  0  0
 13 15  1  0  0  0  0
 14 25  1  0  0  0  0
 15 26  1  0  0  0  0
 16 17  2  0  0  0  0
 16 18  1  0  0  0  0
 17 19  1  0  0  0  0
 17 27  1  0  0  0  0
 18 20  2  0  0  0  0
 18 28  1  0  0  0  0
 19 21  2  0  0  0  0
 19 29  1  0  0  0  0
 20 21  1  0  0  0  0
 20 30  1  0  0  0  0
 21 32  1  0  0  0  0
 22 33  1  0  0  0  0
 22 34  1  0  0  0  0
 22 35  1  0  0  0  0
 23 24  1  0  0  0  0
 24 36  1  0  0  0  0
 24 37  1  0  0  0  0
 24 38  1  0  0  0  0
M  END
> <PUBCHEM_COMPOUND_CID>
21721889

> <PUBCHEM_CONFORMER_RMSD>
0.8

> <PUBCHEM_CONFORMER_DIVERSEORDER>
1
2
4
5
8
3
7
6

> <PUBCHEM_MMFF94_PARTIAL_CHARGES>
32
1 -0.16
10 0.05
11 0.08
12 0.47
13 0.08
14 -0.14
15 -0.15
16 0.03
17 -0.15
18 -0.15
19 -0.15
2 -0.36
20 -0.15
21 -0.15
22 0.28
23 0.66
24 0.06
25 0.15
26 0.15
27 0.15
28 0.15
29 0.15
3 -0.23
30 0.15
31 0.45
32 0.15
4 -0.53
5 -0.57
6 -0.57
7 0.09
8 0.08
9 0.08

> <PUBCHEM_EFFECTIVE_ROTOR_COUNT>
4

> <PUBCHEM_PHARMACOPHORE_FEATURES>
8
1 1 acceptor
1 2 acceptor
1 4 donor
1 5 acceptor
1 6 acceptor
6 1 7 8 10 12 14 rings
6 16 17 18 19 20 21 rings
6 7 8 9 11 13 15 rings

> <PUBCHEM_HEAVY_ATOM_COUNT>
24

> <PUBCHEM_ATOM_DEF_STEREO_COUNT>
0

> <PUBCHEM_ATOM_UDEF_STEREO_COUNT>
0

> <PUBCHEM_BOND_DEF_STEREO_COUNT>
0

> <PUBCHEM_BOND_UDEF_STEREO_COUNT>
0

> <PUBCHEM_ISOTOPIC_ATOM_COUNT>
0

> <PUBCHEM_COMPONENT_COUNT>
1

> <PUBCHEM_CACTVS_TAUTO_COUNT>
4

> <PUBCHEM_CONFORMER_ID>
014B732100000001

> <PUBCHEM_MMFF94_ENERGY>
86.8778

> <PUBCHEM_FEATURE_SELFOVERLAP>
40.632

> <PUBCHEM_SHAPE_FINGERPRINT>
10366900 7 17846779602885225128
10411042 1 17545323437222992634
10498660 4 18412546526603228176
105312 117 18260822696424685549
11112241 14 16771807004308986344
11135609 187 18338510851513741841
12107183 9 18189038829970577170
12236239 1 17676487289836973224
12293681 160 18129940079550621969
12390115 104 18341066171637343747
12403259 118 17749114438644044116
12403259 415 18341900739928819584
12788726 201 17631171875296034145
12969540 114 18340476820477931437
13140716 1 18196943377158874993
13540713 4 18189916239965231491
14117953 113 18261110730054386556
14790565 3 18126009252598987681
15196674 1 18410013225731967418
16087824 20 18338234982102718975
16752209 62 18264485259967554482
17980427 23 17313109686902720127
19784866 34 18410569548972499789
20510252 161 18271534207675261018
20715895 44 18335132047174235749
21033648 29 18340481270333406792
21279426 13 18342468023894925238
21521721 280 18339082589122919993
21859007 373 17679284296872751540
22182313 1 18267325225224100167
23227448 37 18336265750951954116
23402539 116 18341891939683203036
23557571 272 18270413809521297550
23559900 14 18269550534033119994
2748010 2 18198617937778794555
34934 24 18335416855108260913
350125 39 18264776643697125857
394222 165 17824535271653666955
4028521 119 18342177782314612324
4371632 12 15119824933171487112
469060 322 17970932139546348651
5104073 3 18261116227469717395
53917941 68 18338504331009166103
6327066 14 18261107465588922037
9981440 41 18334013903883391258

> <PUBCHEM_SHAPE_MULTIPOLES>
458.69
11.05
3.39
1.1
5.57
2.34
0.19
-9.21
3.31
-2.31
-0.58
0.08
-0.61
0.91

> <PUBCHEM_SHAPE_SELFOVERLAP>
1009.638

> <PUBCHEM_SHAPE_VOLUME>
244.5

> <PUBCHEM_COORDINATE_TYPE>
2
5
10

$$$$
35755714
  -OEChem-07302621033D

 52 55  0     1  0  0  0  0  0999 V2000
   -2.8629    0.4735   -0.2973 O   0  0  0  0  0  0  0  0  0  0  0  0
   -1.9774   -0.7771    1.4618 O   0  0  0  0  0  0  0  0  0  0  0  0
   -6.5069    0.7757    1.5662 O   0  0  0  0  0  0  0  0  0  0  0  0
   -4.5979   -1.3201    2.3682 O   0  0  0  0  0  0  0  0  0  0  0  0
   -6.2948    1.2596   -1.2885 O   0  0  0  0  0  0  0  0  0  0  0  0
   -3.2795    2.9335   -1.4899 O   0  5  0  0  0  0  0  0  0  0  0  0
   -3.5142    1.5622   -3.3062 O   0  0  0  0  0  0  0  0  0  0  0  0
    2.5743    0.1417    0.4108 O   0  0  0  0  0  0  0  0  0  0  0  0
    0.2720    0.8247    1.6678 O   0  0  0  0  0  0  0  0  0  0  0  0
    0.3834   -3.8254   -1.3087 O   0  0  0  0  0  0  0  0  0  0  0  0
    2.8849   -3.2396   -1.8407 O   0  0  0  0  0  0  0  0  0  0  0  0
   -5.5312    0.1706    0.7162 C   0  0  2  0  0  0  0  0  0  0  0  0
   -4.2964   -0.1984    1.5387 C   0  0  2  0  0  0  0  0  0  0  0  0
   -5.1877    1.1670   -0.3925 C   0  0  1  0  0  0  0  0  0  0  0  0
   -3.1221   -0.5729    0.6347 C   0  0  1  0  0  0  0  0  0  0  0  0
   -3.9611    0.7072   -1.1692 C   0  0  1  0  0  0  0  0  0  0  0  0
   -3.5437    1.8474   -2.0762 C   0  0  0  0  0  0  0  0  0  0  0  0
   -0.8169   -1.1261    0.8263 C   0  0  0  0  0  0  0  0  0  0  0  0
    0.3174   -0.3202    0.9286 C   0  0  0  0  0  0  0  0  0  0  0  0
   -0.7771   -2.2991    0.0712 C   0  0  0  0  0  0  0  0  0  0  0  0
    1.4923   -0.6904    0.2739 C   0  0  0  0  0  0  0  0  0  0  0  0
    1.5301   -1.8623   -0.4800 C   0  0  0  0  0  0  0  0  0  0  0  0
    0.3966   -2.6717   -0.5850 C   0  0  0  0  0  0  0  0  0  0  0  0
    2.7815   -2.2278   -1.1610 C   0  0  0  0  0  0  0  0  0  0  0  0
    3.7579   -0.2042   -0.2231 C   0  0  0  0  0  0  0  0  0  0  0  0
    3.9171   -1.3011   -0.9807 C   0  0  0  0  0  0  0  0  0  0  0  0
    4.8547    0.7627   -0.0152 C   0  0  0  0  0  0  0  0  0  0  0  0
    0.6189    0.7182    3.0467 C   0  0  0  0  0  0  0  0  0  0  0  0
    6.0474    0.3475    0.5769 C   0  0  0  0  0  0  0  0  0  0  0  0
    4.6978    2.0909   -0.4108 C   0  0  0  0  0  0  0  0  0  0  0  0
    7.0835    1.2607    0.7734 C   0  0  0  0  0  0  0  0  0  0  0  0
    5.7337    3.0041   -0.2144 C   0  0  0  0  0  0  0  0  0  0  0  0
    6.9265    2.5891    0.3777 C   0  0  0  0  0  0  0  0  0  0  0  0
   -6.0055   -0.7249    0.2974 H   0  0  0  0  0  0  0  0  0  0  0  0
   -4.0190    0.6251    2.2075 H   0  0  0  0  0  0  0  0  0  0  0  0
   -5.0496    2.1573    0.0593 H   0  0  0  0  0  0  0  0  0  0  0  0
   -3.3552   -1.5016    0.0975 H   0  0  0  0  0  0  0  0  0  0  0  0
   -4.1682   -0.1909   -1.7654 H   0  0  0  0  0  0  0  0  0  0  0  0
   -6.1058    1.5604    1.9771 H   0  0  0  0  0  0  0  0  0  0  0  0
   -4.8453   -2.0636    1.7923 H   0  0  0  0  0  0  0  0  0  0  0  0
   -6.1095    1.9754   -1.9195 H   0  0  0  0  0  0  0  0  0  0  0  0
   -1.6498   -2.9434    0.0016 H   0  0  0  0  0  0  0  0  0  0  0  0
    4.8499   -1.5446   -1.4770 H   0  0  0  0  0  0  0  0  0  0  0  0
    1.2494   -3.9820   -1.7153 H   0  0  0  0  0  0  0  0  0  0  0  0
    0.5403    1.7115    3.4969 H   0  0  0  0  0  0  0  0  0  0  0  0
    1.6483    0.3638    3.1597 H   0  0  0  0  0  0  0  0  0  0  0  0
   -0.0694    0.0438    3.5658 H   0  0  0  0  0  0  0  0  0  0  0  0
    6.1871   -0.6824    0.8966 H   0  0  0  0  0  0  0  0  0  0  0  0
    3.7752    2.4304   -0.8757 H   0  0  0  0  0  0  0  0  0  0  0  0
    8.0119    0.9380    1.2355 H   0  0  0  0  0  0  0  0  0  0  0  0
    5.6118    4.0383   -0.5228 H   0  0  0  0  0  0  0  0  0  0  0  0
    7.7330    3.3002    0.5308 H   0  0  0  0  0  0  0  0  0  0  0  0
  1 15  1  0  0  0  0
  1 16  1  0  0  0  0
  2 15  1  0  0  0  0
  2 18  1  0  0  0  0
  3 12  1  0  0  0  0
  3 39  1  0  0  0  0
  4 13  1  0  0  0  0
  4 40  1  0  0  0  0
  5 14  1  0  0  0  0
  5 41  1  0  0  0  0
  6 17  1  0  0  0  0
  7 17  2  0  0  0  0
  8 21  1  0  0  0  0
  8 25  1  0  0  0  0
  9 19  1  0  0  0  0
  9 28  1  0  0  0  0
 10 23  1  0  0  0  0
 10 44  1  0  0  0  0
 11 24  2  0  0  0  0
 12 13  1  0  0  0  0
 12 14  1  0  0  0  0
 12 34  1  0  0  0  0
 13 15  1  0  0  0  0
 13 35  1  0  0  0  0
 14 16  1  0  0  0  0
 14 36  1  0  0  0  0
 15 37  1  0  0  0  0
 16 17  1  0  0  0  0
 16 38  1  0  0  0  0
 18 19  2  0  0  0  0
 18 20  1  0  0  0  0
 19 21  1  0  0  0  0
 20 23  2  0  0  0  0
 20 42  1  0  0  0  0
 21 22  2  0  0  0  0
 22 23  1  0  0  0  0
 22 24  1  0  0  0  0
 24 26  1  0  0  0  0
 25 26  2  0  0  0  0
 25 27  1  0  0  0  0
 26 43  1  0  0  0  0
 27 29  2  0  0  0  0
 27 30  1  0  0  0  0
 28 45  1  0  0  0  0
 28 46  1  0  0  0  0
 28 47  1  0  0  0  0
 29 31  1  0  0  0  0
 29 48  1  0  0  0  0
 30 32  2  0  0  0  0
 30 49  1  0  0  0  0
 31 33  2  0  0  0  0
 31 50  1  0  0  0  0
 32 33  1  0  0  0  0
 32 51  1  0  0  0  0
 33 52  1  0  0  0  0
M  CHG  1   6  -1
M  END
> <PUBCHEM_COMPOUND_CID>
35755714

> <PUBCHEM_CONFORMER_RMSD>
0.8

> <PUBCHEM_CONFORMER_DIVERSEORDER>
1
78
16
56
81
95
53
59
17
118
60
99
111
6
69
108
32
31
92
36
90
101
88
83
115
116
24
28
63
105
12
40
103
54
73
71
117
15
11
18
21
29
106
2
113
26
110
51
20
5
76
102
45
34
65
22
41
23
74
8
4
109
72
87
112
30
3
52
50
47
80
75
7
43
49
58
104
114
33
70
86
42
77
35
19
9
38
94
67
10
91
107
39
62
85
44
37
68
96
82
64
93
66
57
84
61
55
89
13
14
48
46
98
79
100
27
97
25

> <PUBCHEM_MMFF94_PARTIAL_CHARGES>
44
1 -0.56
10 -0.53
11 -0.57
12 0.28
13 0.28
14 0.28
15 0.56
16 0.17
17 0.91
18 0.08
19 0.08
2 -0.36
20 -0.15
21 0.08
22 0.09
23 0.08
24 0.47
25 0.05
26 -0.14
27 0.03
28 0.28
29 -0.15
3 -0.68
30 -0.15
31 -0.15
32 -0.15
33 -0.15
39 0.4
4 -0.68
40 0.4
41 0.4
42 0.15
43 0.15
44 0.45
48 0.15
49 0.15
5 -0.68
50 0.15
51 0.15
52 0.15
6 -0.9
7 -0.9
8 -0.16
9 -0.36

> <PUBCHEM_EFFECTIVE_ROTOR_COUNT>
6.2

> <PUBCHEM_PHARMACOPHORE_FEATURES>
19
1 1 acceptor
1 10 donor
1 11 acceptor
1 2 acceptor
1 3 acceptor
1 3 donor
1 4 acceptor
1 4 donor
1 5 acceptor
1 5 donor
1 6 acceptor
1 7 acceptor
1 8 acceptor
1 9 acceptor
3 6 7 17 anion
6 1 12 13 14 15 16 rings
6 18 19 20 21 22 23 rings
6 27 29 30 31 32 33 rings
6 8 21 22 24 25 26 rings

> <PUBCHEM_HEAVY_ATOM_COUNT>
33

> <PUBCHEM_ATOM_DEF_STEREO_COUNT>
5

> <PUBCHEM_ATOM_UDEF_STEREO_COUNT>
0

> <PUBCHEM_BOND_DEF_STEREO_COUNT>
0

> <PUBCHEM_BOND_UDEF_STEREO_COUNT>
0

> <PUBCHEM_ISOTOPIC_ATOM_COUNT>
0

> <PUBCHEM_COMPONENT_COUNT>
1

> <PUBCHEM_CACTVS_TAUTO_COUNT>
4

> <PUBCHEM_CONFORMER_ID>
022196C200000001

> <PUBCHEM_MMFF94_ENERGY>
119.2681

> <PUBCHEM_FEATURE_SELFOVERLAP>
96.586

> <PUBCHEM_SHAPE_FINGERPRINT>
10 15 18113903805321978272
10165383 225 18343305894514643715
10256941 240 15867698113383337932
10319926 262 17240488009245927346
10369192 42 18340493351939006757
10554248 39 17989210352680647924
11135926 11 17917717898607903982
11297750 10 17125070293667248050
11621639 307 17632301116429406136
11720765 8 17181916771373700815
11796584 16 13038896712132450871
12107698 1 17531529896348083973
12128747 34 17168414957868335490
12422481 6 17968094278718659596
12633257 1 14634871968234539354
12788726 201 16056330418417613587
12969540 114 18201995547399967522
13257819 101 18334286574540511502
13383661 66 12462718672199977652
13402501 40 18259702306877059053
13911987 19 18202567301688088816
14117953 113 18271535260512291860
14739800 52 17458892760935058985
14767858 380 17561084717631861224
15238133 3 16950288421049156300
15537594 2 16989127534980603785
18393751 57 18187090580885883827
18608769 82 18200314463263250131
19319366 153 18060135401638269470
20511986 3 18268419317663049456
20715895 44 18343023320163649936
21033648 29 18186811257191890111
21859007 373 18114176385869695070
2838139 119 18261098704288102692
3918712 181 17462831096761892149
392239 28 16226345797366870769
46194498 28 18269550542680349927
504843 32 18199749309580370470
77296 10 17313376769665736760

> <PUBCHEM_SHAPE_MULTIPOLES>
614.56
16.64
3.35
2.19
5.3
1.44
-0.02
-14.26
-0.81
2.83
2.06
-3
-0.53
3.01

> <PUBCHEM_SHAPE_SELFOVERLAP>
1350.175

> <PUBCHEM_SHAPE_VOLUME>
327.5

> <PUBCHEM_COORDINATE_TYPE>
2
5
10

$$$$
44258554
  -OEChem-07302621033D

 54 57  0     1  0  0  0  0  0999 V2000
    3.8690   -0.4584   -0.5622 O   0  0  0  0  0  0  0  0  0  0  0  0
    1.8588    0.4667    0.2878 O   0  0  0  0  0  0  0  0  0  0  0  0
    3.6175    2.6835    1.2297 O   0  0  0  0  0  0  0  0  0  0  0  0
    6.2840    1.1996   -0.7278 O   0  0  0  0  0  0  0  0  0  0  0  0
    3.9445    1.9150   -2.3147 O   0  0  0  0  0  0  0  0  0  0  0  0
    5.0636   -2.3370    1.3622 O   0  0  0  0  0  0  0  0  0  0  0  0
   -2.8440   -0.7099    0.0870 O   0  0  0  0  0  0  0  0  0  0  0  0
   -2.1498   -3.3288    0.0060 O   0  0  0  0  0  0  0  0  0  0  0  0
    0.5117   -4.0800    0.0625 O   0  0  0  0  0  0  0  0  0  0  0  0
   -0.0597    2.2573    0.2918 O   0  0  0  0  0  0  0  0  0  0  0  0
    4.3158    2.3306    0.0377 C   0  0  1  0  0  0  0  0  0  0  0  0
    5.3560    1.2499    0.3545 C   0  0  1  0  0  0  0  0  0  0  0  0
    3.3169    1.8751   -1.0339 C   0  0  2  0  0  0  0  0  0  0  0  0
    4.6938   -0.1217    0.5587 C   0  0  2  0  0  0  0  0  0  0  0  0
    2.7930    0.4565   -0.7868 C   0  0  1  0  0  0  0  0  0  0  0  0
    5.7067   -1.2497    0.7256 C   0  0  0  0  0  0  0  0  0  0  0  0
    0.8383   -0.4408    0.2183 C   0  0  0  0  0  0  0  0  0  0  0  0
   -0.5056   -0.0611    0.1896 C   0  0  0  0  0  0  0  0  0  0  0  0
    1.1709   -1.7952    0.1755 C   0  0  0  0  0  0  0  0  0  0  0  0
   -1.5094   -1.0256    0.1186 C   0  0  0  0  0  0  0  0  0  0  0  0
   -1.1739   -2.3790    0.0757 C   0  0  0  0  0  0  0  0  0  0  0  0
    0.1671   -2.7624    0.1043 C   0  0  0  0  0  0  0  0  0  0  0  0
   -0.8875    1.3587    0.2320 C   0  0  0  0  0  0  0  0  0  0  0  0
   -3.2078    0.6272    0.1353 C   0  0  0  0  0  0  0  0  0  0  0  0
   -2.3357    1.6459    0.1979 C   0  0  0  0  0  0  0  0  0  0  0  0
   -4.6663    0.8543    0.0889 C   0  0  0  0  0  0  0  0  0  0  0  0
   -5.3010    1.5264    1.1334 C   0  0  0  0  0  0  0  0  0  0  0  0
   -5.4090    0.3966   -0.9993 C   0  0  0  0  0  0  0  0  0  0  0  0
   -2.5712   -3.7287   -1.2960 C   0  0  0  0  0  0  0  0  0  0  0  0
   -6.6787    1.7409    1.0897 C   0  0  0  0  0  0  0  0  0  0  0  0
   -6.7866    0.6110   -1.0431 C   0  0  0  0  0  0  0  0  0  0  0  0
   -7.4215    1.2832    0.0014 C   0  0  0  0  0  0  0  0  0  0  0  0
    4.8238    3.2344   -0.3210 H   0  0  0  0  0  0  0  0  0  0  0  0
    5.9178    1.5104    1.2594 H   0  0  0  0  0  0  0  0  0  0  0  0
    2.4745    2.5769   -1.0561 H   0  0  0  0  0  0  0  0  0  0  0  0
    4.0565   -0.0881    1.4521 H   0  0  0  0  0  0  0  0  0  0  0  0
    2.2928    0.1173   -1.7043 H   0  0  0  0  0  0  0  0  0  0  0  0
    6.5392   -0.9376    1.3640 H   0  0  0  0  0  0  0  0  0  0  0  0
    6.0936   -1.5929   -0.2393 H   0  0  0  0  0  0  0  0  0  0  0  0
    4.2743    3.0043    1.8709 H   0  0  0  0  0  0  0  0  0  0  0  0
    6.7226    2.0659   -0.7801 H   0  0  0  0  0  0  0  0  0  0  0  0
    3.2708    1.6940   -2.9802 H   0  0  0  0  0  0  0  0  0  0  0  0
    5.7242   -3.0434    1.4626 H   0  0  0  0  0  0  0  0  0  0  0  0
    2.2073   -2.1153    0.2204 H   0  0  0  0  0  0  0  0  0  0  0  0
   -2.6440    2.6852    0.2225 H   0  0  0  0  0  0  0  0  0  0  0  0
    1.4809   -4.1567    0.0881 H   0  0  0  0  0  0  0  0  0  0  0  0
   -4.7401    1.8865    1.9926 H   0  0  0  0  0  0  0  0  0  0  0  0
   -4.9295   -0.1275   -1.8224 H   0  0  0  0  0  0  0  0  0  0  0  0
   -3.3497   -4.4885   -1.1856 H   0  0  0  0  0  0  0  0  0  0  0  0
   -1.7363   -4.1625   -1.8553 H   0  0  0  0  0  0  0  0  0  0  0  0
   -2.9886   -2.8783   -1.8446 H   0  0  0  0  0  0  0  0  0  0  0  0
   -7.1733    2.2632    1.9034 H   0  0  0  0  0  0  0  0  0  0  0  0
   -7.3651    0.2549   -1.8905 H   0  0  0  0  0  0  0  0  0  0  0  0
   -8.4941    1.4498   -0.0327 H   0  0  0  0  0  0  0  0  0  0  0  0
  1 14  1  0  0  0  0
  1 15  1  0  0  0  0
  2 15  1  0  0  0  0
  2 17  1  0  0  0  0
  3 11  1  0  0  0  0
  3 40  1  0  0  0  0
  4 12  1  0  0  0  0
  4 41  1  0  0  0  0
  5 13  1  0  0  0  0
  5 42  1  0  0  0  0
  6 16  1  0  0  0  0
  6 43  1  0  0  0  0
  7 20  1  0  0  0  0
  7 24  1  0  0  0  0
  8 21  1  0  0  0  0
  8 29  1  0  0  0  0
  9 22  1  0  0  0  0
  9 46  1  0  0  0  0
 10 23  2  0  0  0  0
 11 12  1  0  0  0  0
 11 13  1  0  0  0  0
 11 33  1  0  0  0  0
 12 14  1  0  0  0  0
 12 34  1  0  0  0  0
 13 15  1  0  0  0  0
 13 35  1  0  0  0  0
 14 16  1  0  0  0  0
 14 36  1  0  0  0  0
 15 37  1  0  0  0  0
 16 38  1  0  0  0  0
 16 39  1  0  0  0  0
 17 18  2  0  0  0  0
 17 19  1  0  0  0  0
 18 20  1  0  0  0  0
 18 23  1  0  0  0  0
 19 22  2  0  0  0  0
 19 44  1  0  0  0  0
 20 21  2  0  0  0  0
 21 22  1  0  0  0  0
 23 25  1  0  0  0  0
 24 25  2  0  0  0  0
 24 26  1  0  0  0  0
 25 45  1  0  0  0  0
 26 27  2  0  0  0  0
 26 28  1  0  0  0  0
 27 30  1  0  0  0  0
 27 47  1  0  0  0  0
 28 31  2  0  0  0  0
 28 48  1  0  0  0  0
 29 49  1  0  0  0  0
 29 50  1  0  0  0  0
 29 51  1  0  0  0  0
 30 32  2  0  0  0  0
 30 52  1  0  0  0  0
 31 32  1  0  0  0  0
 31 53  1  0  0  0  0
 32 54  1  0  0  0  0
M  END
> <PUBCHEM_COMPOUND_CID>
44258554

> <PUBCHEM_CONFORMER_RMSD>
0.8

> <PUBCHEM_CONFORMER_DIVERSEORDER>
3
130
54
116
126
135
131
124
110
9
119
128
103
14
107
56
104
125
97
78
28
113
55
70
122
69
132
141
82
61
58
57
76
109
81
29
13
48
62
51
6
20
68
49
121
77
5
105
53
15
101
139
112
115
38
47
64
45
136
90
21
2
114
24
65
72
91
10
12
42
43
37
44
31
41
50
133
32
118
8
89
92
39
7
11
26
16
83
23
111
102
73
40
34
117
79
98
19
1
106
138
52
134
108
75
127
25
36
123
95
22
4
63
84
60
120
30
96
71
85
74
140
99
86
87
33
94
100
59
93
129
66
80
27
88
18
35
143
142
137
46
67
17

> <PUBCHEM_MMFF94_PARTIAL_CHARGES>
44
1 -0.56
10 -0.57
11 0.28
12 0.28
13 0.28
14 0.28
15 0.56
16 0.28
17 0.08
18 0.09
19 -0.15
2 -0.36
20 0.08
21 0.08
22 0.08
23 0.47
24 0.05
25 -0.14
26 0.03
27 -0.15
28 -0.15
29 0.28
3 -0.68
30 -0.15
31 -0.15
32 -0.15
4 -0.68
40 0.4
41 0.4
42 0.4
43 0.4
44 0.15
45 0.15
46 0.45
47 0.15
48 0.15
5 -0.68
52 0.15
53 0.15
54 0.15
6 -0.68
7 -0.16
8 -0.36
9 -0.53

> <PUBCHEM_EFFECTIVE_ROTOR_COUNT>
6.2

> <PUBCHEM_PHARMACOPHORE_FEATURES>
18
1 1 acceptor
1 10 acceptor
1 2 acceptor
1 3 acceptor
1 3 donor
1 4 acceptor
1 4 donor
1 5 acceptor
1 5 donor
1 6 acceptor
1 6 donor
1 7 acceptor
1 8 acceptor
1 9 donor
6 1 11 12 13 14 15 rings
6 17 18 19 20 21 22 rings
6 26 27 28 30 31 32 rings
6 7 18 20 23 24 25 rings

> <PUBCHEM_HEAVY_ATOM_COUNT>
32

> <PUBCHEM_ATOM_DEF_STEREO_COUNT>
3

> <PUBCHEM_ATOM_UDEF_STEREO_COUNT>
2

> <PUBCHEM_BOND_DEF_STEREO_COUNT>
0

> <PUBCHEM_BOND_UDEF_STEREO_COUNT>
0

> <PUBCHEM_ISOTOPIC_ATOM_COUNT>
0

> <PUBCHEM_COMPONENT_COUNT>
1

> <PUBCHEM_CACTVS_TAUTO_COUNT>
5

> <PUBCHEM_CONFORMER_ID>
02A354FA00000003

> <PUBCHEM_MMFF94_ENERGY>
117.0246

> <PUBCHEM_FEATURE_SELFOVERLAP>
91.449

> <PUBCHEM_SHAPE_FINGERPRINT>
10763959 59 17530680974597840820
10906281 52 18200889421564792621
1100329 8 18341048614017110233
11135926 11 18340481172308235933
11578080 2 17701523225003361992
11719270 70 18337387154481458403
12107183 9 18336539422759233938
12422481 6 17530684307977336935
13140716 1 18409166623395984394
13533116 47 18336824204702084504
13692114 37 18059558222848527855
13782708 43 13984661473239883617
14117953 113 18334298647599070756
14790565 3 18412830179360687305
14840074 17 18113899364500244389
15131766 46 16228042429312003324
15183329 4 18131354107212013177
16728300 4 17390486529671370330
18222031 100 8646766669156149085
19309040 13 16663207133258918068
19319366 153 18340762650979183183
20028762 73 18200590298488705598
20715895 44 18410575076178671940
21236236 1 18339642356162741783
21716022 299 15409217162222570934
21781051 124 18116174253836592787
21781055 127 17773895107726208704
21859007 373 17751338626324448204
22311459 1 18338515214709910738
23559900 14 18201449077800531198
23569917 315 18411985741435663127
249057 3 18408323272713760002
25147074 1 18337656586296609003
2838139 119 18411133615765390485
3178227 256 18339375127898403769
335352 9 18410857638431130574
34797466 226 16056881364059092465
350125 39 18408040689313675104
3680242 22 18409170974165817040
397830 11 16661226843903027049
4073 2 18265612272550385000
4340502 62 18411141312135483231
5104073 3 18334572486176397242
5171179 24 17485074530032548523
5486654 2 18342459235985603401
5758199 1 18343587322347285193
59755656 520 18410568500752722623
6058803 2 17827071012119598630
6371009 1 18340201895353149601

> <PUBCHEM_SHAPE_MULTIPOLES>
599.85
16.48
3.81
1.14
9.86
3.99
-0.31
-10.07
0.4
-0.76
-0.16
-0.36
-0.29
-2.01

> <PUBCHEM_SHAPE_SELFOVERLAP>
1310.925

> <PUBCHEM_SHAPE_VOLUME>
321.5

> <PUBCHEM_COORDINATE_TYPE>
2
5
10

$$$$
51136398
  -OEChem-07302621033D

 54 57  0     1  0  0  0  0  0999 V2000
   -3.9517   -0.4880   -0.4562 O   0  0  0  0  0  0  0  0  0  0  0  0
   -1.9828    0.6252   -1.0332 O   0  0  0  0  0  0  0  0  0  0  0  0
   -5.8179    3.0539    0.4699 O   0  0  0  0  0  0  0  0  0  0  0  0
   -6.9254    0.5794    1.4171 O   0  0  0  0  0  0  0  0  0  0  0  0
   -2.9124    2.9272    0.3761 O   0  0  0  0  0  0  0  0  0  0  0  0
   -4.9740   -2.9742    0.0793 O   0  0  0  0  0  0  0  0  0  0  0  0
    2.6826    0.3342   -0.1310 O   0  0  0  0  0  0  0  0  0  0  0  0
    0.4903    1.8243   -0.6972 O   0  0  0  0  0  0  0  0  0  0  0  0
   -0.0789   -3.6483   -0.2262 O   0  0  0  0  0  0  0  0  0  0  0  0
    2.4989   -3.7172    0.2580 O   0  0  0  0  0  0  0  0  0  0  0  0
   -5.0406    1.8859    0.7388 C   0  0  1  0  0  0  0  0  0  0  0  0
   -5.8945    0.6545    0.4356 C   0  0  1  0  0  0  0  0  0  0  0  0
   -3.7802    1.9117   -0.1260 C   0  0  2  0  0  0  0  0  0  0  0  0
   -5.0420   -0.6164    0.4580 C   0  0  1  0  0  0  0  0  0  0  0  0
   -3.0589    0.5642   -0.0980 C   0  0  1  0  0  0  0  0  0  0  0  0
   -5.8355   -1.8513    0.0418 C   0  0  0  0  0  0  0  0  0  0  0  0
   -0.8790   -0.1306   -0.7466 C   0  0  0  0  0  0  0  0  0  0  0  0
    0.3681    0.4715   -0.5773 C   0  0  0  0  0  0  0  0  0  0  0  0
   -1.0109   -1.5147   -0.6253 C   0  0  0  0  0  0  0  0  0  0  0  0
    1.4835   -0.3140   -0.2860 C   0  0  0  0  0  0  0  0  0  0  0  0
    1.3499   -1.6962   -0.1654 C   0  0  0  0  0  0  0  0  0  0  0  0
    0.1032   -2.3028   -0.3343 C   0  0  0  0  0  0  0  0  0  0  0  0
    2.5427   -2.5004    0.1408 C   0  0  0  0  0  0  0  0  0  0  0  0
    3.8076   -0.4201    0.1659 C   0  0  0  0  0  0  0  0  0  0  0  0
    3.8081   -1.7558    0.3004 C   0  0  0  0  0  0  0  0  0  0  0  0
    5.0439    0.3757    0.3049 C   0  0  0  0  0  0  0  0  0  0  0  0
    0.7805    2.3346   -1.9966 C   0  0  0  0  0  0  0  0  0  0  0  0
    5.7593    0.3492    1.5020 C   0  0  0  0  0  0  0  0  0  0  0  0
    5.4961    1.1535   -0.7609 C   0  0  0  0  0  0  0  0  0  0  0  0
    6.9271    1.1009    1.6335 C   0  0  0  0  0  0  0  0  0  0  0  0
    6.6638    1.9051   -0.6295 C   0  0  0  0  0  0  0  0  0  0  0  0
    7.3792    1.8789    0.5677 C   0  0  0  0  0  0  0  0  0  0  0  0
   -4.7841    1.9299    1.8040 H   0  0  0  0  0  0  0  0  0  0  0  0
   -6.3797    0.7731   -0.5408 H   0  0  0  0  0  0  0  0  0  0  0  0
   -4.0286    2.1908   -1.1570 H   0  0  0  0  0  0  0  0  0  0  0  0
   -4.6353   -0.7990    1.4621 H   0  0  0  0  0  0  0  0  0  0  0  0
   -2.6562    0.3807    0.9092 H   0  0  0  0  0  0  0  0  0  0  0  0
   -6.2066   -1.7491   -0.9835 H   0  0  0  0  0  0  0  0  0  0  0  0
   -6.6786   -2.0304    0.7158 H   0  0  0  0  0  0  0  0  0  0  0  0
   -6.0554    3.0483   -0.4730 H   0  0  0  0  0  0  0  0  0  0  0  0
   -6.5064    0.4323    2.2822 H   0  0  0  0  0  0  0  0  0  0  0  0
   -2.6530    2.6818    1.2806 H   0  0  0  0  0  0  0  0  0  0  0  0
   -5.4977   -3.7471   -0.1925 H   0  0  0  0  0  0  0  0  0  0  0  0
   -1.9720   -1.9987   -0.7729 H   0  0  0  0  0  0  0  0  0  0  0  0
    4.7038   -2.3257    0.5211 H   0  0  0  0  0  0  0  0  0  0  0  0
    0.7594   -4.0896   -0.0204 H   0  0  0  0  0  0  0  0  0  0  0  0
    1.7371    1.9456   -2.3594 H   0  0  0  0  0  0  0  0  0  0  0  0
    0.8497    3.4237   -1.9288 H   0  0  0  0  0  0  0  0  0  0  0  0
   -0.0194    2.0784   -2.6985 H   0  0  0  0  0  0  0  0  0  0  0  0
    5.4203   -0.2469    2.3459 H   0  0  0  0  0  0  0  0  0  0  0  0
    4.9512    1.1838   -1.7014 H   0  0  0  0  0  0  0  0  0  0  0  0
    7.4836    1.0814    2.5659 H   0  0  0  0  0  0  0  0  0  0  0  0
    7.0162    2.5106   -1.4594 H   0  0  0  0  0  0  0  0  0  0  0  0
    8.2883    2.4643    0.6700 H   0  0  0  0  0  0  0  0  0  0  0  0
  1 14  1  0  0  0  0
  1 15  1  0  0  0  0
  2 15  1  0  0  0  0
  2 17  1  0  0  0  0
  3 11  1  0  0  0  0
  3 40  1  0  0  0  0
  4 12  1  0  0  0  0
  4 41  1  0  0  0  0
  5 13  1  0  0  0  0
  5 42  1  0  0  0  0
  6 16  1  0  0  0  0
  6 43  1  0  0  0  0
  7 20  1  0  0  0  0
  7 24  1  0  0  0  0
  8 18  1  0  0  0  0
  8 27  1  0  0  0  0
  9 22  1  0  0  0  0
  9 46  1  0  0  0  0
 10 23  2  0  0  0  0
 11 12  1  0  0  0  0
 11 13  1  0  0  0  0
 11 33  1  0  0  0  0
 12 14  1  0  0  0  0
 12 34  1  0  0  0  0
 13 15  1  0  0  0  0
 13 35  1  0  0  0  0
 14 16  1  0  0  0  0
 14 36  1  0  0  0  0
 15 37  1  0  0  0  0
 16 38  1  0  0  0  0
 16 39  1  0  0  0  0
 17 18  2  0  0  0  0
 17 19  1  0  0  0  0
 18 20  1  0  0  0  0
 19 22  2  0  0  0  0
 19 44  1  0  0  0  0
 20 21  2  0  0  0  0
 21 22  1  0  0  0  0
 21 23  1  0  0  0  0
 23 25  1  0  0  0  0
 24 25  2  0  0  0  0
 24 26  1  0  0  0  0
 25 45  1  0  0  0  0
 26 28  2  0  0  0  0
 26 29  1  0  0  0  0
 27 47  1  0  0  0  0
 27 48  1  0  0  0  0
 27 49  1  0  0  0  0
 28 30  1  0  0  0  0
 28 50  1  0  0  0  0
 29 31  2  0  0  0  0
 29 51  1  0  0  0  0
 30 32  2  0  0  0  0
 30 52  1  0  0  0  0
 31 32  1  0  0  0  0
 31 53  1  0  0  0  0
 32 54  1  0  0  0  0
M  END
> <PUBCHEM_COMPOUND_CID>
51136398

> <PUBCHEM_CONFORMER_RMSD>
0.8

> <PUBCHEM_CONFORMER_DIVERSEORDER>
1
24
30
39
23
38
31
25
26
34
10
37
5
21
33
11
35
41
32
28
29
40
36
27
9
22
8
20
13
12
7
42
19
3
18
14
15
16
17
6
4
2

> <PUBCHEM_MMFF94_PARTIAL_CHARGES>
44
1 -0.56
10 -0.57
11 0.28
12 0.28
13 0.28
14 0.28
15 0.56
16 0.28
17 0.08
18 0.08
19 -0.15
2 -0.36
20 0.08
21 0.09
22 0.08
23 0.47
24 0.05
25 -0.14
26 0.03
27 0.28
28 -0.15
29 -0.15
3 -0.68
30 -0.15
31 -0.15
32 -0.15
4 -0.68
40 0.4
41 0.4
42 0.4
43 0.4
44 0.15
45 0.15
46 0.45
5 -0.68
50 0.15
51 0.15
52 0.15
53 0.15
54 0.15
6 -0.68
7 -0.16
8 -0.36
9 -0.53

> <PUBCHEM_EFFECTIVE_ROTOR_COUNT>
6.2

> <PUBCHEM_PHARMACOPHORE_FEATURES>
18
1 1 acceptor
1 10 acceptor
1 2 acceptor
1 3 acceptor
1 3 donor
1 4 acceptor
1 4 donor
1 5 acceptor
1 5 donor
1 6 acceptor
1 6 donor
1 7 acceptor
1 8 acceptor
1 9 donor
6 1 11 12 13 14 15 rings
6 17 18 19 20 21 22 rings
6 26 28 29 30 31 32 rings
6 7 20 21 23 24 25 rings

> <PUBCHEM_HEAVY_ATOM_COUNT>
32

> <PUBCHEM_ATOM_DEF_STEREO_COUNT>
5

> <PUBCHEM_ATOM_UDEF_STEREO_COUNT>
0

> <PUBCHEM_BOND_DEF_STEREO_COUNT>
0

> <PUBCHEM_BOND_UDEF_STEREO_COUNT>
0

> <PUBCHEM_ISOTOPIC_ATOM_COUNT>
0

> <PUBCHEM_COMPONENT_COUNT>
1

> <PUBCHEM_CACTVS_TAUTO_COUNT>
4

> <PUBCHEM_CONFORMER_ID>
030C478E00000001

> <PUBCHEM_MMFF94_ENERGY>
117.0839

> <PUBCHEM_FEATURE_SELFOVERLAP>
91.457

> <PUBCHEM_SHAPE_FINGERPRINT>
10 15 18333452036409089801
10493431 412 18410853274438331190
10835480 77 18263639576997445125
10906281 52 18113911493645974630
11445158 3 17531808085959391334
11456790 92 18271793633012593776
12422481 6 17604142632764136140
12596602 18 18131072614664582259
13140716 1 17904199583016391126
13540713 4 17825939326479852108
13540713 5 18198880588030807526
14020679 6 17676488406043070344
14294032 229 18058725939796119078
14341114 176 18338525127752307955
14394314 77 18341899584504405393
1454969 45 18334573589824541462
14790565 3 18337113462101753620
14840074 17 17821732762902374884
14849402 71 18263931114629109396
15475509 35 16444466755398248250
15840311 113 18269560438127172597
16126227 98 18339360898508370640
16992610 120 18263098729573048476
16993089 31 14780369148501544482
1813 80 16951140460555338911
18222031 100 8358259268072482428
18608769 82 18270961353110471570
19315958 150 18338240350267610641
19377110 9 18259980479128744930
2026 5 12757143580761656313
20739085 24 18189624838743541390
20775438 99 8500076381914771240
21033648 29 18059282245038916810
21756936 100 18130497621749573902
21781055 127 18271813407221456320
221357 26 9006756684932880715
22149856 69 18263661614204803769
22224240 67 18410290328378872411
24771293 8 18410011082991790460
3411729 13 18339361868780517898
350125 39 18410575132192757373
392239 28 18272093829008032977
4073 2 18334582334742401243
4093350 32 17418093192655539270
4340502 62 18413387627529203878
4403749 210 18411129273347582997
5104073 3 18263640675817522059
5385378 56 18410570657543970082
550186 72 18410290302852668877
5758199 1 18342178881562496162
86090 222 14563368416657186416
9689198 14 17632579383550114632

> <PUBCHEM_SHAPE_MULTIPOLES>
599.85
18.63
3.64
1.13
3.25
1.84
0
-10.13
-7.56
-1.58
0.15
0.74
-0.59
-0.71

> <PUBCHEM_SHAPE_SELFOVERLAP>
1309.491

> <PUBCHEM_SHAPE_VOLUME>
322.1

> <PUBCHEM_COORDINATE_TYPE>
2
5
10

$$$$
86289529
  -OEChem-07302621033D

 32 34  0     0  0  0  0  0  0999 V2000
    0.3219   -0.5125   -0.1257 O   0  0  0  0  0  0  0  0  0  0  0  0
   -1.3897   -2.5945   -0.4150 O   0  0  0  0  0  0  0  0  0  0  0  0
   -4.1240   -2.1803   -0.3928 O   0  0  0  0  0  0  0  0  0  0  0  0
   -0.9932    3.3131    0.3588 O   0  0  0  0  0  0  0  0  0  0  0  0
   -3.4652    2.3991    0.2053 O   0  5  0  0  0  0  0  0  0  0  0  0
   -1.5418    1.0350    0.0529 C   0  0  0  0  0  0  0  0  0  0  0  0
   -1.0244   -0.2493   -0.1077 C   0  0  0  0  0  0  0  0  0  0  0  0
    1.2041    0.5479    0.0148 C   0  0  0  0  0  0  0  0  0  0  0  0
   -1.8875   -1.3349   -0.2582 C   0  0  0  0  0  0  0  0  0  0  0  0
   -0.6090    2.1612    0.2110 C   0  0  0  0  0  0  0  0  0  0  0  0
   -2.9227    1.2440    0.0641 C   0  0  0  0  0  0  0  0  0  0  0  0
    0.8291    1.8260    0.1824 C   0  0  0  0  0  0  0  0  0  0  0  0
    2.6267    0.1525   -0.0121 C   0  0  0  0  0  0  0  0  0  0  0  0
   -3.2675   -1.1303   -0.2477 C   0  0  0  0  0  0  0  0  0  0  0  0
   -3.7837    0.1564   -0.0869 C   0  0  0  0  0  0  0  0  0  0  0  0
    3.4800    0.6836   -0.9794 C   0  0  0  0  0  0  0  0  0  0  0  0
    3.1171   -0.7522    0.9295 C   0  0  0  0  0  0  0  0  0  0  0  0
    4.8238    0.3100   -1.0050 C   0  0  0  0  0  0  0  0  0  0  0  0
    4.4607   -1.1256    0.9040 C   0  0  0  0  0  0  0  0  0  0  0  0
    5.3141   -0.5947   -0.0633 C   0  0  0  0  0  0  0  0  0  0  0  0
   -1.1686   -3.3547    0.7709 C   0  0  0  0  0  0  0  0  0  0  0  0
    1.5381    2.6376    0.3024 H   0  0  0  0  0  0  0  0  0  0  0  0
   -4.8652    0.2939   -0.0818 H   0  0  0  0  0  0  0  0  0  0  0  0
    3.1156    1.3862   -1.7250 H   0  0  0  0  0  0  0  0  0  0  0  0
    2.4657   -1.1741    1.6911 H   0  0  0  0  0  0  0  0  0  0  0  0
    5.4880    0.7225   -1.7588 H   0  0  0  0  0  0  0  0  0  0  0  0
    4.8428   -1.8297    1.6374 H   0  0  0  0  0  0  0  0  0  0  0  0
    6.3602   -0.8857   -0.0833 H   0  0  0  0  0  0  0  0  0  0  0  0
   -5.0389   -1.8520   -0.3597 H   0  0  0  0  0  0  0  0  0  0  0  0
   -0.7725   -4.3320    0.4822 H   0  0  0  0  0  0  0  0  0  0  0  0
   -2.1073   -3.5045    1.3137 H   0  0  0  0  0  0  0  0  0  0  0  0
   -0.4372   -2.8583    1.4165 H   0  0  0  0  0  0  0  0  0  0  0  0
  1  7  1  0  0  0  0
  1  8  1  0  0  0  0
  2  9  1  0  0  0  0
  2 21  1  0  0  0  0
  3 14  1  0  0  0  0
  3 29  1  0  0  0  0
  4 10  2  0  0  0  0
  5 11  1  0  0  0  0
  6  7  1  0  0  0  0
  6 10  1  0  0  0  0
  6 11  2  0  0  0  0
  7  9  2  0  0  0  0
  8 12  2  0  0  0  0
  8 13  1  0  0  0  0
  9 14  1  0  0  0  0
 10 12  1  0  0  0  0
 11 15  1  0  0  0  0
 12 22  1  0  0  0  0
 13 16  2  0  0  0  0
 13 17  1  0  0  0  0
 14 15  2  0  0  0  0
 15 23  1  0  0  0  0
 16 18  1  0  0  0  0
 16 24  1  0  0  0  0
 17 19  2  0  0  0  0
 17 25  1  0  0  0  0
 18 20  2  0  0  0  0
 18 26  1  0  0  0  0
 19 20  1  0  0  0  0
 19 27  1  0  0  0  0
 20 28  1  0  0  0  0
 21 30  1  0  0  0  0
 21 31  1  0  0  0  0
 21 32  1  0  0  0  0
M  CHG  1   5  -1
M  END
> <PUBCHEM_COMPOUND_CID>
86289529

> <PUBCHEM_CONFORMER_RMSD>
0.6

> <PUBCHEM_CONFORMER_DIVERSEORDER>
1
2

> <PUBCHEM_MMFF94_PARTIAL_CHARGES>
29
1 -0.16
10 0.47
11 -0.17
12 -0.14
13 0.03
14 0.08
15 -0.15
16 -0.15
17 -0.15
18 -0.15
19 -0.15
2 -0.36
20 -0.15
21 0.28
22 0.15
23 0.15
24 0.15
25 0.15
26 0.15
27 0.15
28 0.15
29 0.45
3 -0.53
4 -0.57
5 -0.83
6 0.09
7 0.08
8 0.05
9 0.08

> <PUBCHEM_EFFECTIVE_ROTOR_COUNT>
2

> <PUBCHEM_PHARMACOPHORE_FEATURES>
7
1 1 acceptor
1 2 acceptor
1 3 donor
1 4 acceptor
6 1 6 7 8 10 12 rings
6 13 16 17 18 19 20 rings
6 6 7 9 11 14 15 rings

> <PUBCHEM_HEAVY_ATOM_COUNT>
21

> <PUBCHEM_ATOM_DEF_STEREO_COUNT>
0

> <PUBCHEM_ATOM_UDEF_STEREO_COUNT>
0

> <PUBCHEM_BOND_DEF_STEREO_COUNT>
0

> <PUBCHEM_BOND_UDEF_STEREO_COUNT>
0

> <PUBCHEM_ISOTOPIC_ATOM_COUNT>
0

> <PUBCHEM_COMPONENT_COUNT>
1

> <PUBCHEM_CACTVS_TAUTO_COUNT>
5

> <PUBCHEM_CONFORMER_ID>
0524AC7900000001

> <PUBCHEM_MMFF94_ENERGY>
84.9198

> <PUBCHEM_FEATURE_SELFOVERLAP>
35.556

> <PUBCHEM_SHAPE_FINGERPRINT>
10062212 137 18335419049778487873
10319926 262 18127385927493490586
10411042 1 18268428126140066479
10616163 171 18410858772070797182
10967382 1 18123749747486742297
1100329 8 18412830192203573273
11046707 91 18413107264295063972
11680986 33 17980477085759810385
12107183 9 17686896121245095858
12236239 1 17967817128246273916
12403814 3 17676205736706923845
12553582 1 18339076102793842482
12788726 201 18411423907914015914
13140716 1 18341894099904618673
13167823 11 18333452032546430998
13862211 1 18341327886044973567
14251757 5 18336836372144188158
14790565 3 18124604076380279441
15042514 8 18410859845616961651
15196674 1 18411980294978372388
15415430 112 18410015450762078788
16752209 62 18337658759290980899
17804303 29 18271806851766655073
200 152 18113337509726209120
20028762 73 17987236814987726927
20510252 161 18129098918526596392
20871999 31 18410575101911643556
21029758 27 18261681466772555885
21267235 1 18410301327742878511
21634736 98 18262803007282305420
2297311 6 18272663341766181004
23366157 5 18044653337643280228
23402539 116 18342450426559020389
23557571 272 18272654567353814216
23559900 14 18128825136305493174
238078 22 18338808917458077820
2748010 2 18126275578687604429
3004659 81 18187361043587396966
3084891 72 18340484474204533055
3178227 256 18337687356222682633
335352 9 18412543232890690181
350125 39 18409169918152734821
4214541 1 18410573964135719564
43471831 8 18120653535300916003
474 4 17386861680579640436
5104073 3 18413670227481606168
559249 180 18335979758318539554
573450 72 18336259059793398074
58807428 26 18196099841539888465
59755656 215 18341611473987293175
67856867 119 18261954150552981708
8809292 202 18411702122741536242
9709674 26 18124872614645481633

> <PUBCHEM_SHAPE_MULTIPOLES>
402.82
9.13
3.07
0.84
8.52
0.43
0.01
1.97
0.91
-3.23
-0.54
0.62
0.12
-0.85

> <PUBCHEM_SHAPE_SELFOVERLAP>
897.717

> <PUBCHEM_SHAPE_VOLUME>
213.2

> <PUBCHEM_COORDINATE_TYPE>
2
5
10

$$$$
91753938
  -OEChem-07302621033D

 57 59  0     0  0  0  0  0  0999 V2000
   -3.3499    3.0663   -0.0505 Si  0  0  0  0  0  0  0  0  0  0  0  0
   -4.0589   -2.6919   -0.0095 Si  0  0  0  0  0  0  0  0  0  0  0  0
   -1.9264    2.3175    0.4123 O   0  0  0  0  0  0  0  0  0  0  0  0
   -2.5183   -2.2937   -0.5266 O   0  0  0  0  0  0  0  0  0  0  0  0
    1.9078   -0.5931   -0.1554 O   0  0  0  0  0  0  0  0  0  0  0  0
    0.2214   -2.6707   -0.5876 O   0  0  0  0  0  0  0  0  0  0  0  0
    0.5471    3.1712    0.6048 O   0  0  0  0  0  0  0  0  0  0  0  0
   -1.3577    1.1040    0.1695 C   0  0  0  0  0  0  0  0  0  0  0  0
    0.0257    0.9139    0.1390 C   0  0  0  0  0  0  0  0  0  0  0  0
   -1.6741   -1.2462   -0.3097 C   0  0  0  0  0  0  0  0  0  0  0  0
    0.5584   -0.3490   -0.1144 C   0  0  0  0  0  0  0  0  0  0  0  0
   -0.2917   -1.4320   -0.3392 C   0  0  0  0  0  0  0  0  0  0  0  0
   -2.2056    0.0190   -0.0560 C   0  0  0  0  0  0  0  0  0  0  0  0
   -4.8080    2.4563    0.9675 C   0  0  0  0  0  0  0  0  0  0  0  0
   -3.2282    4.9350    0.1152 C   0  0  0  0  0  0  0  0  0  0  0  0
   -3.7150    2.6768   -1.8608 C   0  0  0  0  0  0  0  0  0  0  0  0
   -4.3820   -4.5370   -0.1706 C   0  0  0  0  0  0  0  0  0  0  0  0
   -5.3708   -1.7551   -0.9769 C   0  0  0  0  0  0  0  0  0  0  0  0
   -4.2572   -2.2350    1.8110 C   0  0  0  0  0  0  0  0  0  0  0  0
    0.9450    2.0378    0.3741 C   0  0  0  0  0  0  0  0  0  0  0  0
    2.7773    0.4658    0.0575 C   0  0  0  0  0  0  0  0  0  0  0  0
    2.3871    1.7238    0.3171 C   0  0  0  0  0  0  0  0  0  0  0  0
    4.2046    0.0914   -0.0021 C   0  0  0  0  0  0  0  0  0  0  0  0
    0.4574   -3.5108    0.5400 C   0  0  0  0  0  0  0  0  0  0  0  0
    5.0472    0.7010   -0.9317 C   0  0  0  0  0  0  0  0  0  0  0  0
    4.7101   -0.8717    0.8711 C   0  0  0  0  0  0  0  0  0  0  0  0
    6.3955    0.3473   -0.9881 C   0  0  0  0  0  0  0  0  0  0  0  0
    6.0581   -1.2252    0.8147 C   0  0  0  0  0  0  0  0  0  0  0  0
    6.9008   -0.6159   -0.1150 C   0  0  0  0  0  0  0  0  0  0  0  0
   -3.2781    0.1523   -0.0335 H   0  0  0  0  0  0  0  0  0  0  0  0
   -5.0002    1.3933    0.8030 H   0  0  0  0  0  0  0  0  0  0  0  0
   -5.7148    3.0076    0.7007 H   0  0  0  0  0  0  0  0  0  0  0  0
   -4.6177    2.6086    2.0340 H   0  0  0  0  0  0  0  0  0  0  0  0
   -4.1578    5.4130   -0.2073 H   0  0  0  0  0  0  0  0  0  0  0  0
   -2.4102    5.3221   -0.4993 H   0  0  0  0  0  0  0  0  0  0  0  0
   -3.0392    5.2160    1.1554 H   0  0  0  0  0  0  0  0  0  0  0  0
   -4.5989    3.2275   -2.1959 H   0  0  0  0  0  0  0  0  0  0  0  0
   -3.9041    1.6096   -2.0054 H   0  0  0  0  0  0  0  0  0  0  0  0
   -2.8690    2.9672   -2.4904 H   0  0  0  0  0  0  0  0  0  0  0  0
   -4.3021   -4.8504   -1.2156 H   0  0  0  0  0  0  0  0  0  0  0  0
   -3.6546   -5.1063    0.4155 H   0  0  0  0  0  0  0  0  0  0  0  0
   -5.3848   -4.7865    0.1882 H   0  0  0  0  0  0  0  0  0  0  0  0
   -5.2707   -1.9564   -2.0476 H   0  0  0  0  0  0  0  0  0  0  0  0
   -6.3713   -2.0674   -0.6628 H   0  0  0  0  0  0  0  0  0  0  0  0
   -5.2899   -0.6762   -0.8229 H   0  0  0  0  0  0  0  0  0  0  0  0
   -4.1828   -1.1539    1.9566 H   0  0  0  0  0  0  0  0  0  0  0  0
   -5.2337   -2.5623    2.1800 H   0  0  0  0  0  0  0  0  0  0  0  0
   -3.4816   -2.7196    2.4113 H   0  0  0  0  0  0  0  0  0  0  0  0
    3.0864    2.5338    0.4924 H   0  0  0  0  0  0  0  0  0  0  0  0
    0.8588   -4.4620    0.1800 H   0  0  0  0  0  0  0  0  0  0  0  0
   -0.4753   -3.7066    1.0783 H   0  0  0  0  0  0  0  0  0  0  0  0
    1.1902   -3.0550    1.2135 H   0  0  0  0  0  0  0  0  0  0  0  0
    4.6710    1.4502   -1.6241 H   0  0  0  0  0  0  0  0  0  0  0  0
    4.0671   -1.3551    1.6027 H   0  0  0  0  0  0  0  0  0  0  0  0
    7.0514    0.8209   -1.7127 H   0  0  0  0  0  0  0  0  0  0  0  0
    6.4519   -1.9749    1.4948 H   0  0  0  0  0  0  0  0  0  0  0  0
    7.9504   -0.8914   -0.1590 H   0  0  0  0  0  0  0  0  0  0  0  0
  1  3  1  0  0  0  0
  1 14  1  0  0  0  0
  1 15  1  0  0  0  0
  1 16  1  0  0  0  0
  2  4  1  0  0  0  0
  2 17  1  0  0  0  0
  2 18  1  0  0  0  0
  2 19  1  0  0  0  0
  3  8  1  0  0  0  0
  4 10  1  0  0  0  0
  5 11  1  0  0  0  0
  5 21  1  0  0  0  0
  6 12  1  0  0  0  0
  6 24  1  0  0  0  0
  7 20  2  0  0  0  0
  8  9  1  0  0  0  0
  8 13  2  0  0  0  0
  9 11  2  0  0  0  0
  9 20  1  0  0  0  0
 10 12  2  0  0  0  0
 10 13  1  0  0  0  0
 11 12  1  0  0  0  0
 13 30  1  0  0  0  0
 14 31  1  0  0  0  0
 14 32  1  0  0  0  0
 14 33  1  0  0  0  0
 15 34  1  0  0  0  0
 15 35  1  0  0  0  0
 15 36  1  0  0  0  0
 16 37  1  0  0  0  0
 16 38  1  0  0  0  0
 16 39  1  0  0  0  0
 17 40  1  0  0  0  0
 17 41  1  0  0  0  0
 17 42  1  0  0  0  0
 18 43  1  0  0  0  0
 18 44  1  0  0  0  0
 18 45  1  0  0  0  0
 19 46  1  0  0  0  0
 19 47  1  0  0  0  0
 19 48  1  0  0  0  0
 20 22  1  0  0  0  0
 21 22  2  0  0  0  0
 21 23  1  0  0  0  0
 22 49  1  0  0  0  0
 23 25  2  0  0  0  0
 23 26  1  0  0  0  0
 24 50  1  0  0  0  0
 24 51  1  0  0  0  0
 24 52  1  0  0  0  0
 25 27  1  0  0  0  0
 25 53  1  0  0  0  0
 26 28  2  0  0  0  0
 26 54  1  0  0  0  0
 27 29  2  0  0  0  0
 27 55  1  0  0  0  0
 28 29  1  0  0  0  0
 28 56  1  0  0  0  0
 29 57  1  0  0  0  0
M  END
> <PUBCHEM_COMPOUND_CID>
91753938

> <PUBCHEM_CONFORMER_RMSD>
0.8

> <PUBCHEM_CONFORMER_DIVERSEORDER>
1
139
93
97
50
145
23
149
99
41
85
152
108
55
133
72
148
53
2
141
118
90
94
155
117
81
140
142
114
17
126
52
77
135
137
132
75
58
82
104
106
131
40
100
74
64
70
138
62
66
79
60
109
150
95
56
116
130
144
111
103
61
125
47
143
87
146
151
123
84
88
120
129
101
76
69
3
124
68
83
63
128
73
42
122
29
105
91
8
57
11
112
24
28
86
49
96
115
153
89
65
45
39
113
21
78
18
34
147
121
51
32
110
54
157
20
156
6
98
119
44
26
13
48
134
102
80
33
107
59
12
15
92
14
67
127
71
9
7
30
22
154
136
19
25
43
35
31
46
4
5
38
10
27
36
16
37

> <PUBCHEM_MMFF94_PARTIAL_CHARGES>
36
1 0.54
10 0.08
11 0.08
12 0.08
13 -0.15
14 -0.08
15 -0.08
16 -0.08
17 -0.08
18 -0.08
19 -0.08
2 0.54
20 0.47
21 0.05
22 -0.14
23 0.03
24 0.28
25 -0.15
26 -0.15
27 -0.15
28 -0.15
29 -0.15
3 -0.38
30 0.15
4 -0.38
49 0.15
5 -0.16
53 0.15
54 0.15
55 0.15
56 0.15
57 0.15
6 -0.36
7 -0.57
8 0.08
9 0.09

> <PUBCHEM_EFFECTIVE_ROTOR_COUNT>
6

> <PUBCHEM_PHARMACOPHORE_FEATURES>
6
1 5 acceptor
1 6 acceptor
1 7 acceptor
6 23 25 26 27 28 29 rings
6 5 9 11 20 21 22 rings
6 8 9 10 11 12 13 rings

> <PUBCHEM_HEAVY_ATOM_COUNT>
29

> <PUBCHEM_ATOM_DEF_STEREO_COUNT>
0

> <PUBCHEM_ATOM_UDEF_STEREO_COUNT>
0

> <PUBCHEM_BOND_DEF_STEREO_COUNT>
0

> <PUBCHEM_BOND_UDEF_STEREO_COUNT>
0

> <PUBCHEM_ISOTOPIC_ATOM_COUNT>
0

> <PUBCHEM_COMPONENT_COUNT>
1

> <PUBCHEM_CACTVS_TAUTO_COUNT>
1

> <PUBCHEM_CONFORMER_ID>
05780DD200000001

> <PUBCHEM_MMFF94_ENERGY>
86.8808

> <PUBCHEM_FEATURE_SELFOVERLAP>
30.482

> <PUBCHEM_SHAPE_FINGERPRINT>
10411042 1 18195527219389201127
1100329 8 18413671292444071704
11991303 11 18114174182425196485
12107183 9 17974279920846764082
12236239 1 18113902641992430700
12403259 226 18268987777299881793
12422481 6 17346049968465237254
12645989 146 18126559249200063471
12788726 201 18335700585111971186
13140716 1 18341891896175023632
13540713 4 18198887275173379608
13690498 29 18341057423079229436
14347332 77 18338516451517391750
14713325 29 18408888425747942809
14790565 3 18124036724227681008
14866123 147 18411418389039607915
15042514 8 18411983537705028760
15439362 3 17763463920148426804
15927050 60 18195809566196813095
16087824 20 18411699856492065605
19427546 20 18335423477932228268
19591789 44 18267582597276238603
20028762 73 17915181436488421846
20739085 24 17978812408360460939
21236236 1 18411982455499584813
21703447 108 18196923594840449840
22182313 1 17845669061691652238
22311459 1 18340487755671025193
23522609 53 17978545166214883144
23559900 14 18124025990845276354
283562 15 18335700576580116963
3004659 81 18187359983147362118
335352 9 18412542150411478903
350125 39 18410858793197201133
4058900 60 17831576484004946885
4409770 3 18409443675215243327
5104073 3 18341607132007277456
5171179 24 18059001925630513433
59755656 215 18412824685796926655
59755656 520 18339358540186313829
6700243 42 17912120306079889460
70251023 43 18192148424124504387
7237137 82 18335988639983899604

> <PUBCHEM_SHAPE_MULTIPOLES>
603.89
13.92
5.63
1.11
22.01
1.11
-0.03
-3.73
-0.82
-11.27
0.26
-0.69
0.05
-0.36

> <PUBCHEM_SHAPE_SELFOVERLAP>
1243.392

> <PUBCHEM_SHAPE_VOLUME>
351.6

> <PUBCHEM_COORDINATE_TYPE>
2
5
10

$$$$
162867687
  -OEChem-07302621033D

 54 57  0     1  0  0  0  0  0999 V2000
    3.0744    0.5525    0.3069 O   0  0  0  0  0  0  0  0  0  0  0  0
    2.2506   -0.6834   -1.4922 O   0  0  0  0  0  0  0  0  0  0  0  0
    6.6789    1.1409   -1.5734 O   0  0  0  0  0  0  0  0  0  0  0  0
    4.8904   -1.0341   -2.4366 O   0  0  0  0  0  0  0  0  0  0  0  0
    6.4599    1.5168    1.3001 O   0  0  0  0  0  0  0  0  0  0  0  0
    4.5272    2.1682    3.0648 O   0  0  0  0  0  0  0  0  0  0  0  0
    2.4909    2.3229    2.0523 O   0  0  0  0  0  0  0  0  0  0  0  0
   -2.3394   -0.0844   -0.3794 O   0  0  0  0  0  0  0  0  0  0  0  0
   -0.0936    0.7844   -1.6237 O   0  0  0  0  0  0  0  0  0  0  0  0
    0.1039   -3.9707    1.1772 O   0  0  0  0  0  0  0  0  0  0  0  0
   -2.4267   -3.5638    1.7384 O   0  0  0  0  0  0  0  0  0  0  0  0
   -7.9071    2.9040   -0.4102 O   0  0  0  0  0  0  0  0  0  0  0  0
    5.7486    0.4498   -0.7385 C   0  0  2  0  0  0  0  0  0  0  0  0
    4.5299    0.0368   -1.5642 C   0  0  2  0  0  0  0  0  0  0  0  0
    5.3559    1.3843    0.4062 C   0  0  1  0  0  0  0  0  0  0  0  0
    3.3886   -0.4406   -0.6660 C   0  0  1  0  0  0  0  0  0  0  0  0
    4.1673    0.8238    1.1770 C   0  0  1  0  0  0  0  0  0  0  0  0
    3.6124    1.8422    2.1193 C   0  0  0  0  0  0  0  0  0  0  0  0
    1.1194   -1.1256   -0.8624 C   0  0  0  0  0  0  0  0  0  0  0  0
   -0.0627   -0.3876   -0.9275 C   0  0  0  0  0  0  0  0  0  0  0  0
    1.1575   -2.3261   -0.1515 C   0  0  0  0  0  0  0  0  0  0  0  0
   -1.2072   -0.8527   -0.2794 C   0  0  0  0  0  0  0  0  0  0  0  0
   -1.1672   -2.0519    0.4300 C   0  0  0  0  0  0  0  0  0  0  0  0
    0.0143   -2.7939    0.4974 C   0  0  0  0  0  0  0  0  0  0  0  0
   -2.3890   -2.5197    1.1022 C   0  0  0  0  0  0  0  0  0  0  0  0
   -3.4904   -0.5179    0.2608 C   0  0  0  0  0  0  0  0  0  0  0  0
   -3.5794   -1.6560    0.9672 C   0  0  0  0  0  0  0  0  0  0  0  0
   -4.6494    0.3802    0.0844 C   0  0  0  0  0  0  0  0  0  0  0  0
   -0.4454    0.7080   -3.0033 C   0  0  0  0  0  0  0  0  0  0  0  0
   -5.2677    0.9472    1.1986 C   0  0  0  0  0  0  0  0  0  0  0  0
   -5.1252    0.6619   -1.1962 C   0  0  0  0  0  0  0  0  0  0  0  0
   -6.3621    1.7960    1.0324 C   0  0  0  0  0  0  0  0  0  0  0  0
   -6.2196    1.5107   -1.3624 C   0  0  0  0  0  0  0  0  0  0  0  0
   -6.8381    2.0777   -0.2481 C   0  0  0  0  0  0  0  0  0  0  0  0
    6.2788   -0.4298   -0.3545 H   0  0  0  0  0  0  0  0  0  0  0  0
    4.1972    0.8655   -2.2003 H   0  0  0  0  0  0  0  0  0  0  0  0
    5.1334    2.3827    0.0077 H   0  0  0  0  0  0  0  0  0  0  0  0
    3.6823   -1.3725   -0.1653 H   0  0  0  0  0  0  0  0  0  0  0  0
    4.4157   -0.0759    1.7535 H   0  0  0  0  0  0  0  0  0  0  0  0
    6.2301    1.9183   -1.9473 H   0  0  0  0  0  0  0  0  0  0  0  0
    5.1876   -1.7815   -1.8900 H   0  0  0  0  0  0  0  0  0  0  0  0
    6.2405    2.2113    1.9436 H   0  0  0  0  0  0  0  0  0  0  0  0
    2.0684   -2.9179   -0.1116 H   0  0  0  0  0  0  0  0  0  0  0  0
    4.1826    2.8386    3.6925 H   0  0  0  0  0  0  0  0  0  0  0  0
   -4.4948   -1.9806    1.4494 H   0  0  0  0  0  0  0  0  0  0  0  0
   -0.7460   -4.1922    1.5876 H   0  0  0  0  0  0  0  0  0  0  0  0
    0.2761    0.0940   -3.5514 H   0  0  0  0  0  0  0  0  0  0  0  0
   -1.4536    0.2986   -3.1224 H   0  0  0  0  0  0  0  0  0  0  0  0
   -0.4285    1.7198   -3.4174 H   0  0  0  0  0  0  0  0  0  0  0  0
   -4.9084    0.7439    2.2046 H   0  0  0  0  0  0  0  0  0  0  0  0
   -4.6555    0.2267   -2.0750 H   0  0  0  0  0  0  0  0  0  0  0  0
   -6.8393    2.2353    1.9041 H   0  0  0  0  0  0  0  0  0  0  0  0
   -6.5812    1.7216   -2.3653 H   0  0  0  0  0  0  0  0  0  0  0  0
   -8.1002    2.9869   -1.3599 H   0  0  0  0  0  0  0  0  0  0  0  0
  1 16  1  0  0  0  0
  1 17  1  0  0  0  0
  2 16  1  0  0  0  0
  2 19  1  0  0  0  0
  3 13  1  0  0  0  0
  3 40  1  0  0  0  0
  4 14  1  0  0  0  0
  4 41  1  0  0  0  0
  5 15  1  0  0  0  0
  5 42  1  0  0  0  0
  6 18  1  0  0  0  0
  6 44  1  0  0  0  0
  7 18  2  0  0  0  0
  8 22  1  0  0  0  0
  8 26  1  0  0  0  0
  9 20  1  0  0  0  0
  9 29  1  0  0  0  0
 10 24  1  0  0  0  0
 10 46  1  0  0  0  0
 11 25  2  0  0  0  0
 12 34  1  0  0  0  0
 12 54  1  0  0  0  0
 13 14  1  0  0  0  0
 13 15  1  0  0  0  0
 13 35  1  0  0  0  0
 14 16  1  0  0  0  0
 14 36  1  0  0  0  0
 15 17  1  0  0  0  0
 15 37  1  0  0  0  0
 16 38  1  0  0  0  0
 17 18  1  0  0  0  0
 17 39  1  0  0  0  0
 19 20  2  0  0  0  0
 19 21  1  0  0  0  0
 20 22  1  0  0  0  0
 21 24  2  0  0  0  0
 21 43  1  0  0  0  0
 22 23  2  0  0  0  0
 23 24  1  0  0  0  0
 23 25  1  0  0  0  0
 25 27  1  0  0  0  0
 26 27  2  0  0  0  0
 26 28  1  0  0  0  0
 27 45  1  0  0  0  0
 28 30  2  0  0  0  0
 28 31  1  0  0  0  0
 29 47  1  0  0  0  0
 29 48  1  0  0  0  0
 29 49  1  0  0  0  0
 30 32  1  0  0  0  0
 30 50  1  0  0  0  0
 31 33  2  0  0  0  0
 31 51  1  0  0  0  0
 32 34  2  0  0  0  0
 32 52  1  0  0  0  0
 33 34  1  0  0  0  0
 33 53  1  0  0  0  0
M  END
> <PUBCHEM_COMPOUND_CID>
162867687

> <PUBCHEM_CONFORMER_RMSD>
1

> <PUBCHEM_CONFORMER_DIVERSEORDER>
1
28
32
4
16
2
29
19
44
24
25
11
39
7
21
22
12
8
34
40
3
45
41
33
36
6
30
35
31
15
27
37
38
26
10
23
43
17
18
13
42
20
14
9
5

> <PUBCHEM_MMFF94_PARTIAL_CHARGES>
46
1 -0.56
10 -0.53
11 -0.57
12 -0.53
13 0.28
14 0.28
15 0.28
16 0.56
17 0.34
18 0.66
19 0.08
2 -0.36
20 0.08
21 -0.15
22 0.08
23 0.09
24 0.08
25 0.47
26 0.05
27 -0.14
28 0.03
29 0.28
3 -0.68
30 -0.15
31 -0.15
32 -0.15
33 -0.15
34 0.08
4 -0.68
40 0.4
41 0.4
42 0.4
43 0.15
44 0.5
45 0.15
46 0.45
5 -0.68
50 0.15
51 0.15
52 0.15
53 0.15
54 0.45
6 -0.65
7 -0.57
8 -0.16
9 -0.36

> <PUBCHEM_EFFECTIVE_ROTOR_COUNT>
6.2

> <PUBCHEM_PHARMACOPHORE_FEATURES>
20
1 1 acceptor
1 10 donor
1 11 acceptor
1 12 donor
1 2 acceptor
1 3 acceptor
1 3 donor
1 4 acceptor
1 4 donor
1 5 acceptor
1 5 donor
1 6 acceptor
1 7 acceptor
1 8 acceptor
1 9 acceptor
3 6 7 18 anion
6 1 13 14 15 16 17 rings
6 19 20 21 22 23 24 rings
6 28 30 31 32 33 34 rings
6 8 22 23 25 26 27 rings

> <PUBCHEM_HEAVY_ATOM_COUNT>
34

> <PUBCHEM_ATOM_DEF_STEREO_COUNT>
5

> <PUBCHEM_ATOM_UDEF_STEREO_COUNT>
0

> <PUBCHEM_BOND_DEF_STEREO_COUNT>
0

> <PUBCHEM_BOND_UDEF_STEREO_COUNT>
0

> <PUBCHEM_ISOTOPIC_ATOM_COUNT>
0

> <PUBCHEM_COMPONENT_COUNT>
1

> <PUBCHEM_CACTVS_TAUTO_COUNT>
-1

> <PUBCHEM_CONFORMER_ID>
09B529E700000001

> <PUBCHEM_MMFF94_ENERGY>
117.6708

> <PUBCHEM_FEATURE_SELFOVERLAP>
101.681

> <PUBCHEM_SHAPE_FINGERPRINT>
10 15 17313395517382645245
10006869 2 18266452105817339213
10165383 225 18334299738905281132
10674148 151 17313394427125551238
10763959 59 17918277571306327088
10939801 23 17023197045065586244
10981352 41 7781502716786792249
11297750 10 16955621936516939495
12107698 1 17417813877029305448
12166972 35 14620798193381159642
12236239 1 16515961579718022726
12422481 6 17313651660299352427
12623949 98 10881409711632825675
12633257 1 18041267876652526244
12778500 126 18114174217090623728
13402501 40 18202002148765117496
13583140 156 17488755617431930822
13726171 33 17751657652606325324
14020679 6 16515980253861273009
14068700 675 17682111428873037423
14556957 393 14548746105660124081
14767858 380 13686297980709522821
15183329 4 16486977267239801773
15238133 3 18337107969133896584
15336146 87 18052264186772945636
15361156 5 18200876296134855772
15420108 30 18261105279751780995
15530120 55 16414332628809684661
19053607 189 17750794329762315645
19246450 95 16589681527361689125
19301679 30 8286193981780042175
20511986 3 18340756041556842717
20554085 129 18335698321779782745
20587220 17 17975117757729574845
20775438 99 10661803155069708285
21033648 144 16987723579017664050
21033648 29 18410856606916124066
21223535 225 17345491309310622033
21421861 104 16298378038075401322
21475661 188 18201151143654755848
21792961 116 18059034839008777644
22121540 332 18192143802829800453
22122407 14 17418107510984273280
2260408 40 12540696994192081527
23522609 53 16879087406704154870
23559900 14 18337969930130869822
23576562 1 17203045313510179684
23929065 36 18193831768486236419
2838139 119 17489592251164559841
3388396 114 14260501534320168626
3411729 13 18040998384703403435
3459 39 18187078460382256983
376196 1 18413389851769258723
3918712 181 18335700516335180101
508706 21 18265893747026026507
5385378 56 18114747006487344763
58902169 19 16271925982554550940
6009941 240 18411983602772947984
6086070 43 18060137652459439090
6371380 46 18413669128186015384
6695519 79 18191612786981507691
7226269 152 18408611353134108557
77296 10 17131262601341282013
9658208 31 18409175423657587486

> <PUBCHEM_SHAPE_MULTIPOLES>
629.27
17.66
3.36
2.3
8.01
2.55
-0.07
-17.91
-0.08
2.34
2.05
-2.63
-1
3.09

> <PUBCHEM_SHAPE_SELFOVERLAP>
1383.688

> <PUBCHEM_SHAPE_VOLUME>
336.3

> <PUBCHEM_COORDINATE_TYPE>
2
5
10

$$$$
177824724
  -OEChem-07302621033D

 55 58  0     1  0  0  0  0  0999 V2000
    3.1677    0.6119    0.5927 O   0  0  0  0  0  0  0  0  0  0  0  0
    2.4242   -0.1406   -1.4892 O   0  0  0  0  0  0  0  0  0  0  0  0
    6.8322    1.6916   -0.9395 O   0  0  0  0  0  0  0  0  0  0  0  0
    6.5141    1.3773    1.9116 O   0  0  0  0  0  0  0  0  0  0  0  0
    5.1343   -0.1638   -2.3960 O   0  0  0  0  0  0  0  0  0  0  0  0
    2.5500    0.5295    3.2611 O   0  0  0  0  0  0  0  0  0  0  0  0
   -2.1992    0.0506   -0.3704 O   0  0  0  0  0  0  0  0  0  0  0  0
    0.0368    1.2519   -1.3209 O   0  0  0  0  0  0  0  0  0  0  0  0
    0.3420   -4.0269    0.2718 O   0  0  0  0  0  0  0  0  0  0  0  0
   -2.2087   -3.8346    0.8561 O   0  0  0  0  0  0  0  0  0  0  0  0
   -7.8582    2.8075    0.1846 O   0  0  0  0  0  0  0  0  0  0  0  0
    5.8830    0.8176   -0.3259 C   0  0  1  0  0  0  0  0  0  0  0  0
    5.4205    1.4247    0.9993 C   0  0  1  0  0  0  0  0  0  0  0  0
    4.7126    0.6310   -1.2886 C   0  0  2  0  0  0  0  0  0  0  0  0
    4.2216    0.6503    1.5587 C   0  0  1  0  0  0  0  0  0  0  0  0
    3.5412   -0.0712   -0.6027 C   0  0  1  0  0  0  0  0  0  0  0  0
    3.6541    1.2974    2.8183 C   0  0  0  0  0  0  0  0  0  0  0  0
    1.2981   -0.7508   -1.0087 C   0  0  0  0  0  0  0  0  0  0  0  0
    0.0942   -0.0510   -0.9229 C   0  0  0  0  0  0  0  0  0  0  0  0
    1.3634   -2.0847   -0.6032 C   0  0  0  0  0  0  0  0  0  0  0  0
   -1.0448   -0.6883   -0.4304 C   0  0  0  0  0  0  0  0  0  0  0  0
   -0.9778   -2.0205   -0.0260 C   0  0  0  0  0  0  0  0  0  0  0  0
    0.2255   -2.7248   -0.1104 C   0  0  0  0  0  0  0  0  0  0  0  0
   -2.1943   -2.6684    0.4876 C   0  0  0  0  0  0  0  0  0  0  0  0
   -3.3456   -0.5542    0.1219 C   0  0  0  0  0  0  0  0  0  0  0  0
   -3.4094   -1.8301    0.5350 C   0  0  0  0  0  0  0  0  0  0  0  0
   -4.5297    0.3281    0.1382 C   0  0  0  0  0  0  0  0  0  0  0  0
   -0.2908    1.4973   -2.6866 C   0  0  0  0  0  0  0  0  0  0  0  0
   -5.1831    0.5959    1.3410 C   0  0  0  0  0  0  0  0  0  0  0  0
   -4.9943    0.8941   -1.0491 C   0  0  0  0  0  0  0  0  0  0  0  0
   -6.3012    1.4297    1.3566 C   0  0  0  0  0  0  0  0  0  0  0  0
   -6.1125    1.7279   -1.0334 C   0  0  0  0  0  0  0  0  0  0  0  0
   -6.7660    1.9957    0.1695 C   0  0  0  0  0  0  0  0  0  0  0  0
    6.4072   -0.1309   -0.1590 H   0  0  0  0  0  0  0  0  0  0  0  0
    5.1611    2.4800    0.8515 H   0  0  0  0  0  0  0  0  0  0  0  0
    4.3898    1.5959   -1.6971 H   0  0  0  0  0  0  0  0  0  0  0  0
    4.5031   -0.3823    1.8064 H   0  0  0  0  0  0  0  0  0  0  0  0
    3.8498   -1.0944   -0.3504 H   0  0  0  0  0  0  0  0  0  0  0  0
    3.2938    2.3099    2.6079 H   0  0  0  0  0  0  0  0  0  0  0  0
    4.4001    1.3373    3.6178 H   0  0  0  0  0  0  0  0  0  0  0  0
    6.4001    2.5498   -1.0889 H   0  0  0  0  0  0  0  0  0  0  0  0
    6.7239    0.4430    2.0810 H   0  0  0  0  0  0  0  0  0  0  0  0
    5.4193   -1.0289   -2.0555 H   0  0  0  0  0  0  0  0  0  0  0  0
    2.2022    0.9610    4.0601 H   0  0  0  0  0  0  0  0  0  0  0  0
    2.2915   -2.6447   -0.6848 H   0  0  0  0  0  0  0  0  0  0  0  0
   -4.3214   -2.2850    0.9053 H   0  0  0  0  0  0  0  0  0  0  0  0
   -0.5067   -4.3629    0.5982 H   0  0  0  0  0  0  0  0  0  0  0  0
   -0.2995    2.5787   -2.8475 H   0  0  0  0  0  0  0  0  0  0  0  0
   -1.2834    1.1009   -2.9227 H   0  0  0  0  0  0  0  0  0  0  0  0
    0.4584    1.0516   -3.3486 H   0  0  0  0  0  0  0  0  0  0  0  0
   -4.8332    0.1682    2.2775 H   0  0  0  0  0  0  0  0  0  0  0  0
   -4.4974    0.6940   -1.9954 H   0  0  0  0  0  0  0  0  0  0  0  0
   -6.8057    1.6353    2.2968 H   0  0  0  0  0  0  0  0  0  0  0  0
   -6.4649    2.1621   -1.9652 H   0  0  0  0  0  0  0  0  0  0  0  0
   -8.0390    3.1092   -0.7223 H   0  0  0  0  0  0  0  0  0  0  0  0
  1 15  1  0  0  0  0
  1 16  1  0  0  0  0
  2 16  1  0  0  0  0
  2 18  1  0  0  0  0
  3 12  1  0  0  0  0
  3 41  1  0  0  0  0
  4 13  1  0  0  0  0
  4 42  1  0  0  0  0
  5 14  1  0  0  0  0
  5 43  1  0  0  0  0
  6 17  1  0  0  0  0
  6 44  1  0  0  0  0
  7 21  1  0  0  0  0
  7 25  1  0  0  0  0
  8 19  1  0  0  0  0
  8 28  1  0  0  0  0
  9 23  1  0  0  0  0
  9 47  1  0  0  0  0
 10 24  2  0  0  0  0
 11 33  1  0  0  0  0
 11 55  1  0  0  0  0
 12 13  1  0  0  0  0
 12 14  1  0  0  0  0
 12 34  1  0  0  0  0
 13 15  1  0  0  0  0
 13 35  1  0  0  0  0
 14 16  1  0  0  0  0
 14 36  1  0  0  0  0
 15 17  1  0  0  0  0
 15 37  1  0  0  0  0
 16 38  1  0  0  0  0
 17 39  1  0  0  0  0
 17 40  1  0  0  0  0
 18 19  2  0  0  0  0
 18 20  1  0  0  0  0
 19 21  1  0  0  0  0
 20 23  2  0  0  0  0
 20 45  1  0  0  0  0
 21 22  2  0  0  0  0
 22 23  1  0  0  0  0
 22 24  1  0  0  0  0
 24 26  1  0  0  0  0
 25 26  2  0  0  0  0
 25 27  1  0  0  0  0
 26 46  1  0  0  0  0
 27 29  2  0  0  0  0
 27 30  1  0  0  0  0
 28 48  1  0  0  0  0
 28 49  1  0  0  0  0
 28 50  1  0  0  0  0
 29 31  1  0  0  0  0
 29 51  1  0  0  0  0
 30 32  2  0  0  0  0
 30 52  1  0  0  0  0
 31 33  2  0  0  0  0
 31 53  1  0  0  0  0
 32 33  1  0  0  0  0
 32 54  1  0  0  0  0
M  END
> <PUBCHEM_COMPOUND_CID>
177824724

> <PUBCHEM_CONFORMER_RMSD>
0.8

> <PUBCHEM_CONFORMER_DIVERSEORDER>
1
129
56
124
97
21
61
34
81
74
16
113
80
89
38
75
70
5
123
14
94
85
20
112
105
54
114
18
13
53
60
42
48
118
79
7
15
49
115
120
88
2
31
6
8
45
10
119
111
28
33
125
46
12
128
40
3
71
35
65
24
90
9
121
66
122
98
52
100
103
23
59
67
77
11
78
30
25
37
68
101
91
26
44
4
130
102
93
27
55
47
107
116
72
62
82
73
41
84
126
104
86
110
50
87
117
69
106
32
99
36
76
58
39
51
109
127
63
43
83
92
57
22
29
96
17
64
95
19
108

> <PUBCHEM_MMFF94_PARTIAL_CHARGES>
45
1 -0.56
10 -0.57
11 -0.53
12 0.28
13 0.28
14 0.28
15 0.28
16 0.56
17 0.28
18 0.08
19 0.08
2 -0.36
20 -0.15
21 0.08
22 0.09
23 0.08
24 0.47
25 0.05
26 -0.14
27 0.03
28 0.28
29 -0.15
3 -0.68
30 -0.15
31 -0.15
32 -0.15
33 0.08
4 -0.68
41 0.4
42 0.4
43 0.4
44 0.4
45 0.15
46 0.15
47 0.45
5 -0.68
51 0.15
52 0.15
53 0.15
54 0.15
55 0.45
6 -0.68
7 -0.16
8 -0.36
9 -0.53

> <PUBCHEM_EFFECTIVE_ROTOR_COUNT>
6.2

> <PUBCHEM_PHARMACOPHORE_FEATURES>
19
1 1 acceptor
1 10 acceptor
1 11 donor
1 2 acceptor
1 3 acceptor
1 3 donor
1 4 acceptor
1 4 donor
1 5 acceptor
1 5 donor
1 6 acceptor
1 6 donor
1 7 acceptor
1 8 acceptor
1 9 donor
6 1 12 13 14 15 16 rings
6 18 19 20 21 22 23 rings
6 27 29 30 31 32 33 rings
6 7 21 22 24 25 26 rings

> <PUBCHEM_HEAVY_ATOM_COUNT>
33

> <PUBCHEM_ATOM_DEF_STEREO_COUNT>
5

> <PUBCHEM_ATOM_UDEF_STEREO_COUNT>
0

> <PUBCHEM_BOND_DEF_STEREO_COUNT>
0

> <PUBCHEM_BOND_UDEF_STEREO_COUNT>
0

> <PUBCHEM_ISOTOPIC_ATOM_COUNT>
0

> <PUBCHEM_COMPONENT_COUNT>
1

> <PUBCHEM_CACTVS_TAUTO_COUNT>
-1

> <PUBCHEM_CONFORMER_ID>
0A9963D400000001

> <PUBCHEM_MMFF94_ENERGY>
119.4119

> <PUBCHEM_FEATURE_SELFOVERLAP>
96.533

> <PUBCHEM_SHAPE_MULTIPOLES>
614.56
17.58
3.2
2.2
6.26
3.4
0.69
-17.93
2.93
2.91
0.63
-2.94
-1.22
1.41

> <PUBCHEM_SHAPE_SELFOVERLAP>
1342.895

> <PUBCHEM_SHAPE_VOLUME>
332.1

> <PUBCHEM_COORDINATE_TYPE>
2
5
10

$$$$
